
     RDKit          3D

  9  9  0  0  0  0  0  0  0  0999 V2000
   -1.7089   -0.6116    0.6507 C   0  0  0  0  0  0  0  0  0  0  0  0
   -2.0056    0.2733   -0.3736 O   0  0  0  0  0  0  0  0  0  0  0  0
   -1.2201    1.4296   -0.2623 C   0  0  0  0  0  3  0  0  0  0  0  0
    0.1299    1.1027   -0.4803 O   0  0  0  0  0  0  0  0  0  0  0  0
    0.5617    0.1521    0.4570 C   0  0  2  0  0  0  0  0  0  0  0  0
    2.0468    0.3455    0.6723 C   0  0  0  0  0  0  0  0  0  0  0  0
    2.8152    0.1612   -0.6179 C   0  0  0  0  0  2  0  0  0  0  0  0
    0.3246   -1.2059   -0.1838 C   0  0  0  0  0  3  0  0  0  0  0  0
   -0.9436   -1.6468    0.1379 O   0  0  0  0  0  0  0  0  0  0  0  0
  1  2  1  0
  2  3  1  0
  3  4  1  0
  4  5  1  0
  5  6  1  6
  6  7  1  0
  5  8  1  0
  8  9  1  0
  9  1  1  0
M  RAD  3   3   2   7   3   8   2
M  END
$$$$
