
     RDKit          3D

 26 25  0  0  0  0  0  0  0  0999 V2000
    0.7640   -3.2682   -0.6721 N   0  0  0  0  0  0  0  0  0  0  0  0
    0.6507   -4.8422    0.3557 Br  0  0  0  0  0  0  0  0  0  0  0  0
    0.8579   -3.5779   -2.0797 C   0  0  0  0  0  0  0  0  0  0  0  0
   -0.6361   -4.5046   -2.5416 S   0  0  0  0  0  0  0  0  0  0  0  0
    1.7967   -2.5295   -0.2624 O   0  0  0  0  0  0  0  0  0  0  0  0
    1.6526   -1.1708   -0.5457 C   0  0  2  0  0  0  0  0  0  0  0  0
    2.8007   -0.4878   -0.0689 N   0  0  0  0  0  0  0  0  0  0  0  0
    3.0506    0.7015   -0.2470 N   0  0  0  0  0  0  0  0  0  0  0  0
    2.0520    1.8172   -1.1250 S   0  0  0  0  0  0  0  0  0  0  0  0
    2.2613    3.4751   -0.5828 N   0  0  0  0  0  0  0  0  0  0  0  0
    3.3378    3.9581   -0.1139 C   0  0  0  0  0  0  0  0  0  0  0  0
    4.5446    3.2512    0.0517 N   0  0  0  0  0  0  0  0  0  0  0  0
    5.7101    3.7716    0.0170 C   0  0  0  0  0  0  0  0  0  0  0  0
    5.9680    5.1423   -0.1939 N   0  0  0  0  0  2  0  0  0  0  0  0
    0.4437   -0.7185    0.0855 N   0  0  0  0  0  0  0  0  0  0  0  0
   -0.7898   -1.3003   -0.2641 C   0  0  0  0  0  0  0  0  0  0  0  0
   -1.8686   -1.2217    0.5163 C   0  0  0  0  0  0  0  0  0  0  0  0
   -1.7679   -0.5384    1.7203 O   0  0  0  0  0  0  0  0  0  0  0  0
   -3.3957   -1.9828    0.0083 S   0  0  0  0  0  0  0  0  0  0  0  0
   -4.5947   -1.7201    1.1997 O   0  0  0  0  0  0  0  0  0  0  0  0
   -5.6314   -0.9537    0.6793 C   0  0  0  0  0  0  0  0  0  0  0  0
   -5.1315    0.2934    0.2498 O   0  0  0  0  0  0  0  0  0  0  0  0
   -5.9511    1.2459   -0.3075 C   0  0  0  0  0  0  0  0  0  0  0  0
   -5.7738    2.5520   -0.1376 C   0  0  0  0  0  0  0  0  0  0  0  0
    0.5263    0.5526    1.2823 S   0  0  0  0  0  0  0  0  0  0  0  0
   -0.8762    2.0555    0.9557 Cl  0  0  0  0  0  0  0  0  0  0  0  0
  1  2  1  0
  1  3  1  0
  3  4  1  0
  1  5  1  0
  6  5  1  1
  6  7  1  0
  7  8  2  3
  8  9  1  0
  9 10  1  0
 10 11  2  3
 11 12  1  0
 12 13  2  3
 13 14  1  0
  6 15  1  0
 15 16  1  0
 16 17  2  3
 17 18  1  0
 17 19  1  0
 19 20  1  0
 20 21  1  0
 21 22  1  0
 22 23  1  0
 23 24  2  0
 15 25  1  0
 25 26  1  0
M  RAD  1  14   2
M  END
$$$$
