
     RDKit          3D

 46 48  0  0  0  0  0  0  0  0999 V2000
  -11.7115    3.0572    1.0477 C   0  0  0  0  0  0  0  0  0  0  0  0
  -11.4784    2.1082    0.2060 C   0  0  0  0  0  0  0  0  0  0  0  0
  -11.2343    1.0299   -0.7266 C   0  0  0  0  0  0  0  0  0  0  0  0
   -9.7377    0.7988   -0.7978 C   0  0  0  0  0  0  0  0  0  0  0  0
   -8.9448    1.7282   -1.5116 C   0  0  0  0  0  0  0  0  0  0  0  0
   -7.5221    1.5761   -1.4022 C   0  0  0  0  0  0  0  0  0  0  0  0
   -7.0519    0.6068   -0.6616 C   0  0  0  0  0  0  0  0  0  0  0  0
   -7.8546   -0.2531   -0.0114 C   0  0  0  0  0  0  0  0  0  0  0  0
   -9.1972   -0.1961   -0.0488 C   0  0  0  0  0  0  0  0  0  0  0  0
   -9.8612   -1.2853    0.7443 C   0  0  0  0  0  0  0  0  0  0  0  0
   -8.7531   -1.9407    1.5444 C   0  0  0  0  0  0  0  0  0  0  0  0
   -7.6870   -2.6238    0.9965 C   0  0  0  0  0  0  0  0  0  0  0  0
   -6.5408   -2.8960    0.6203 C   0  0  0  0  0  0  0  0  0  0  0  0
   -5.2873   -2.0289    0.7491 C   0  0  0  0  0  0  0  0  0  0  0  0
   -5.4648   -0.8009    0.1840 C   0  0  0  0  0  0  0  0  0  0  0  0
   -5.5658    0.3303   -0.3276 C   0  0  0  0  0  0  0  0  0  0  0  0
   -4.6702    1.3747   -0.6195 C   0  0  0  0  0  0  0  0  0  0  0  0
   -3.8125    1.8195    0.3094 C   0  0  0  0  0  0  0  0  0  0  0  0
   -2.6923    1.8148    0.9872 C   0  0  0  0  0  0  0  0  0  0  0  0
   -1.4203    1.6008    1.3256 C   0  0  0  0  0  0  0  0  0  0  0  0
   -0.8174    2.3274    2.4049 C   0  0  0  0  0  0  0  0  0  0  0  0
   -0.0912    3.3684    2.2557 C   0  0  0  0  0  0  0  0  0  0  0  0
    0.2389    3.9645    0.9862 C   0  0  0  0  0  0  0  0  0  0  0  0
    0.9717    3.3014    0.0891 C   0  0  0  0  0  0  0  0  0  0  0  0
    1.4171    2.4089   -0.7617 C   0  0  0  0  0  0  0  0  0  0  0  0
    2.1409    1.2895   -1.1058 C   0  0  0  0  0  0  0  0  0  0  0  0
    1.5427    0.0405   -0.7603 C   0  0  0  0  0  0  0  0  0  0  0  0
    1.8766   -0.9677   -0.0986 C   0  0  0  0  0  0  0  0  0  0  0  0
    3.2508   -1.0529    0.5825 C   0  0  0  0  0  0  0  0  0  0  0  0
    3.9328    0.2577    0.1639 C   0  0  0  0  0  0  0  0  0  0  0  0
    5.1218    0.1634   -0.4488 C   0  0  0  0  0  0  0  0  0  0  0  0
    5.9430    1.2151   -0.9388 C   0  0  0  0  0  0  0  0  0  0  0  0
    7.2053    1.0549   -1.2851 C   0  0  0  0  0  0  0  0  0  0  0  0
    8.1798    1.3230   -0.4939 C   0  0  0  0  0  0  0  0  0  0  0  0
    9.3611    1.3012   -1.0288 C   0  0  0  0  0  0  0  0  0  0  0  0
    9.8974    0.2056   -1.4559 C   0  0  0  0  0  0  0  0  0  0  0  0
   10.2724   -0.8886   -0.5176 C   0  0  0  0  0  0  0  0  0  0  0  0
   10.4924   -2.1556   -1.0442 C   0  0  0  0  0  0  0  0  0  0  0  0
   10.5931   -3.2944   -1.4163 C   0  0  0  0  0  0  0  0  0  0  0  0
    9.8691   -4.4425   -0.9289 C   0  0  0  0  0  0  0  0  0  0  0  0
    9.0560   -4.4774    0.1025 C   0  0  0  0  0  0  0  0  0  0  0  0
    8.6472   -3.4928    1.0075 C   0  0  0  0  0  0  0  0  0  0  0  0
    7.4395   -2.9892    1.1616 C   0  0  0  0  0  0  0  0  0  0  0  0
    7.3094   -1.7195    0.8954 C   0  0  0  0  0  0  0  0  0  0  0  0
    7.0098   -1.4103   -0.3679 C   0  0  0  0  0  0  0  0  0  0  0  0
    5.6277   -1.1512   -0.6311 O   0  0  0  0  0  0  0  0  0  0  0  0
  1  2  3  0
  2  3  1  0
  3  4  1  0
  4  5  2  0
  5  6  1  0
  6  7  2  0
  7  8  1  0
  8  9  2  0
  9 10  1  0
 10 11  1  0
 11 12  1  0
 12 13  2  3
 13 14  1  0
 14 15  1  0
 15 16  2  3
 16 17  1  0
 17 18  2  0
 18 19  2  0
 19 20  2  0
 20 21  1  0
 21 22  2  3
 22 23  1  0
 23 24  2  0
 24 25  2  0
 25 26  2  0
 26 27  1  0
 27 28  2  3
 28 29  1  0
 29 30  1  0
 30 31  2  0
 31 32  1  0
 32 33  2  0
 33 34  2  0
 34 35  2  0
 35 36  2  0
 36 37  1  0
 37 38  1  0
 38 39  2  3
 39 40  1  0
 40 41  2  3
 41 42  1  0
 42 43  2  0
 43 44  2  0
 44 45  2  0
 45 46  1  0
  9  4  1  0
 16  7  1  0
 46 31  1  0
M  END
$$$$
