
     RDKit          3D

 16 15  0  0  0  0  0  0  0  0999 V2000
    4.5354   -1.2335    1.5224 C   0  0  0  0  0  0  0  0  0  0  0  0
    4.1716    0.0841    0.8901 C   0  0  0  0  0  0  0  0  0  0  0  0
    4.0978   -0.0490   -0.6327 C   0  0  0  0  0  0  0  0  0  0  0  0
    2.8317    0.5306    1.4466 C   0  0  0  0  0  0  0  0  0  0  0  0
    1.8193   -0.5467    1.0900 C   0  0  0  0  0  3  0  0  0  0  0  0
    1.7154   -0.7305   -0.3901 C   0  0  0  0  0  0  0  0  0  0  0  0
    1.2752    0.5562   -1.0960 C   0  0  1  0  0  0  0  0  0  0  0  0
    1.2167    0.2086   -2.5875 C   0  0  0  0  0  0  0  0  0  0  0  0
   -0.1830    0.7716   -0.6745 C   0  0  0  0  0  0  0  0  0  0  0  0
   -0.9430   -0.4417   -1.1427 C   0  0  0  0  0  0  0  0  0  0  0  0
   -2.4076   -0.3763   -0.7977 C   0  0  0  0  0  0  0  0  0  0  0  0
   -2.5272   -0.2793    0.7080 C   0  0  2  0  0  0  0  0  0  0  0  0
   -1.9018   -1.4845    1.3784 C   0  0  0  0  0  0  0  0  0  0  0  0
   -3.9349   -0.0870    1.1397 C   0  0  0  0  0  0  0  0  0  0  0  0
   -4.9592   -0.1045    0.2977 C   0  0  0  0  0  0  0  0  0  0  0  0
   -4.8064   -0.3164   -1.1518 C   0  0  0  0  0  0  0  0  0  0  0  0
  1  2  1  0
  2  3  1  0
  2  4  1  0
  4  5  1  0
  5  6  1  0
  6  7  1  0
  7  8  1  6
  7  9  1  0
  9 10  1  0
 10 11  1  0
 11 12  1  0
 12 13  1  1
 12 14  1  0
 14 15  2  3
 15 16  1  0
M  RAD  1   5   2
M  END
$$$$
