
     RDKit          3D

 37 39  0  0  0  0  0  0  0  0999 V2000
   -4.0119   -0.4587    0.3932 C   0  0  0  0  0  0  0  0  0  0  0  0
   -3.2585   -1.5402   -0.3459 C   0  0  0  0  0  0  0  0  0  0  0  0
   -3.9133   -1.7437   -1.6888 C   0  0  0  0  0  0  0  0  0  0  0  0
   -3.4460   -2.8228    0.4499 C   0  0  0  0  0  0  0  0  0  0  0  0
   -1.7896   -1.2807   -0.4434 C   0  0  0  0  0  0  0  0  0  0  0  0
   -1.1252   -2.6336   -0.6915 C   0  0  0  0  0  0  0  0  0  0  0  0
    0.2693   -2.4888   -1.2094 C   0  0  0  0  0  0  0  0  0  0  0  0
    1.0854   -3.7295   -0.9147 C   0  0  0  0  0  0  0  0  0  0  0  0
    0.2794   -4.9920   -1.0951 C   0  0  0  0  0  0  0  0  0  0  0  0
    1.7266   -3.6659    0.4594 C   0  0  0  0  0  0  0  0  0  0  0  0
    2.5610   -2.4023    0.4929 C   0  0  0  0  0  0  0  0  0  0  0  0
    1.5916   -1.2221    0.4877 C   0  0  0  0  0  0  0  0  0  0  0  0
    3.4123   -2.2701   -0.7541 C   0  0  0  0  0  0  0  0  0  0  0  0
    4.8846   -2.1059   -0.3629 C   0  0  2  0  0  0  0  0  0  0  0  0
    5.3280   -3.2175    0.3177 O   0  0  0  0  0  0  0  0  0  0  0  0
    4.9986   -0.8485    0.4845 C   0  0  0  0  0  0  0  0  0  0  0  0
    4.9173    0.3812   -0.4031 C   0  0  0  0  0  0  0  0  0  0  0  0
    6.2487    1.0666   -0.4072 C   0  0  0  0  0  0  0  0  0  0  0  0
    3.8145    1.3186    0.0316 C   0  0  0  0  0  0  0  0  0  0  0  0
    4.3112    2.4676    0.8573 C   0  0  0  0  0  0  0  0  0  0  0  0
    3.8399    3.8076    0.3735 C   0  0  0  0  0  0  0  0  0  0  0  0
    2.5156    3.7738   -0.3182 C   0  0  1  0  0  0  0  0  0  0  0  0
    2.3771    2.6639   -1.3104 C   0  0  0  0  0  0  0  0  0  0  0  0
    1.3511    3.8673    0.6394 C   0  0  0  0  0  0  0  0  0  0  0  0
    0.2313    4.7418    0.0641 C   0  0  0  0  0  0  0  0  0  0  0  0
   -1.0684    4.0193    0.3383 C   0  0  0  0  0  0  0  0  0  0  0  0
   -1.3519    2.9482   -0.6917 C   0  0  0  0  0  0  0  0  0  0  0  0
   -1.9163    1.8338   -0.1085 O   0  0  0  0  0  0  0  0  0  0  0  0
   -2.7655    1.1961   -1.0067 C   0  0  0  0  0  0  0  0  0  0  0  0
   -3.0543    2.0985   -2.0269 O   0  0  0  0  0  0  0  0  0  0  0  0
   -4.0729    0.8244   -0.3551 C   0  0  0  0  0  0  0  0  0  0  0  0
   -4.3539    1.8462    0.7191 C   0  0  0  0  0  0  0  0  0  0  0  0
   -3.4533    1.3340    1.8587 C   0  0  0  0  0  0  0  0  0  0  0  0
   -3.6056   -0.1793    1.7670 C   0  0  0  0  0  0  0  0  0  0  0  0
   -2.4014   -0.9386    2.2922 C   0  0  0  0  0  0  0  0  0  0  0  0
   -4.8973   -0.7010    2.1542 C   0  0  0  0  0  0  0  0  0  0  0  0
   -5.2583   -0.9477    0.9363 C   0  0  0  0  0  0  0  0  0  0  0  0
  1  2  1  0
  2  3  1  0
  2  4  1  0
  2  5  1  0
  5  6  1  0
  6  7  1  0
  7  8  1  0
  8  9  1  0
  8 10  1  0
 10 11  1  0
 11 12  1  0
 11 13  1  0
 13 14  1  0
 14 15  1  1
 14 16  1  0
 16 17  1  0
 17 18  1  0
 17 19  1  0
 19 20  1  0
 20 21  1  0
 21 22  1  0
 22 23  1  1
 22 24  1  0
 24 25  1  0
 25 26  1  0
 26 27  1  0
 27 28  1  0
 28 29  1  0
 29 30  1  0
 29 31  1  0
 31 32  1  0
 32 33  1  0
 33 34  1  0
 34 35  1  0
 34 36  1  0
 36 37  2  0
 31  1  1  0
 34  1  1  0
 37  1  1  0
M  END
$$$$
