
     RDKit          3D

 40 43  0  0  0  0  0  0  0  0999 V2000
   -8.8840    1.3832   -0.0194 C   0  0  0  0  0  0  0  0  0  0  0  0
   -7.4875    2.3145    0.5141 S   0  0  0  0  0  0  0  0  0  0  0  0
   -7.8276    3.0789    1.7794 O   0  0  0  0  0  0  0  0  0  0  0  0
   -7.1910    3.3633   -0.5288 O   0  0  0  0  0  0  0  0  0  0  0  0
   -6.0581    1.3117    0.7970 C   0  0  0  0  0  0  0  0  0  0  0  0
   -5.6243    0.5753   -0.4411 C   0  0  0  0  0  0  0  0  0  0  0  0
   -6.6877   -0.2863   -0.8778 N   0  0  0  0  0  0  0  0  0  0  0  0
   -7.3277   -1.0224    0.1967 C   0  0  0  0  0  0  0  0  0  0  0  0
   -6.9597   -2.4675    0.1489 C   0  0  0  0  0  0  0  0  0  0  0  0
   -5.8212   -3.1387   -0.1100 C   0  0  0  0  0  0  0  0  0  0  0  0
   -4.4767   -2.6315   -0.4535 C   0  0  0  0  0  0  0  0  0  0  0  0
   -3.9414   -1.4154   -0.4667 C   0  0  0  0  0  0  0  0  0  0  0  0
   -2.5456   -1.4011   -0.8854 C   0  0  0  0  0  0  0  0  0  0  0  0
   -1.9527   -2.6044   -1.2109 C   0  0  0  0  0  0  0  0  0  0  0  0
   -0.5624   -2.7579   -1.1709 C   0  0  0  0  0  0  0  0  0  0  0  0
    0.1055   -2.5622    0.0057 C   0  0  0  0  0  0  0  0  0  0  0  0
   -0.3420   -1.7004    0.9332 N   0  0  0  0  0  0  0  0  0  0  0  0
   -0.1650   -0.3815    0.8154 C   0  0  0  0  0  0  0  0  0  0  0  0
    0.7543    0.1050   -0.0358 N   0  0  0  0  0  0  0  0  0  0  0  0
    0.5326    0.2084   -1.3539 C   0  0  0  0  0  0  0  0  0  0  0  0
    1.5427    0.6854   -2.2038 N   0  0  0  0  0  0  0  0  0  0  0  0
    2.7919    1.0576   -1.6827 C   0  0  0  0  0  0  0  0  0  0  0  0
    3.0461    0.9610   -0.3305 C   0  0  0  0  0  0  0  0  0  0  0  0
    4.2885    1.3322    0.1801 C   0  0  0  0  0  0  0  0  0  0  0  0
    5.2822    1.7999   -0.6465 C   0  0  0  0  0  0  0  0  0  0  0  0
    6.4959    2.1604   -0.1289 O   0  0  0  0  0  0  0  0  0  0  0  0
    6.7753    2.0692    1.2335 C   0  0  0  0  0  0  0  0  0  0  0  0
    6.6631    0.6641    1.7544 C   0  0  0  0  0  0  0  0  0  0  0  0
    7.6916   -0.2479    1.5083 C   0  0  0  0  0  0  0  0  0  0  0  0
    7.6149   -1.5355    1.9807 C   0  0  0  0  0  0  0  0  0  0  0  0
    6.5272   -1.9403    2.6996 C   0  0  0  0  0  0  0  0  0  0  0  0
    5.5031   -1.0546    2.9521 C   0  0  0  0  0  0  0  0  0  0  0  0
    4.4426   -1.5007    3.6702 F   0  0  0  0  0  0  0  0  0  0  0  0
    5.5908    0.2298    2.4749 C   0  0  0  0  0  0  0  0  0  0  0  0
    5.0463    1.9034   -2.0012 C   0  0  0  0  0  0  0  0  0  0  0  0
    6.3308    2.5034   -3.0366 Cl  0  0  0  0  0  0  0  0  0  0  0  0
    3.8135    1.5303   -2.4744 C   0  0  0  0  0  0  0  0  0  0  0  0
   -0.7085   -0.1674   -1.8299 C   0  0  0  0  0  0  0  0  0  0  0  0
   -1.8040   -0.2477   -0.9675 C   0  0  0  0  0  0  0  0  0  0  0  0
   -4.4717   -0.1737   -0.1559 O   0  0  0  0  0  0  0  0  0  0  0  0
  1  2  1  0
  2  3  2  0
  2  4  2  0
  2  5  1  0
  5  6  1  0
  6  7  1  0
  7  8  1  0
  8  9  1  0
  9 10  2  3
 10 11  1  0
 11 12  2  3
 12 13  1  0
 13 14  2  0
 14 15  1  0
 15 16  2  0
 16 17  1  0
 17 18  2  0
 18 19  1  0
 19 20  2  0
 20 21  1  0
 21 22  1  0
 22 23  2  0
 23 24  1  0
 24 25  2  0
 25 26  1  0
 26 27  1  0
 27 28  1  0
 28 29  2  0
 29 30  1  0
 30 31  2  0
 31 32  1  0
 32 33  1  0
 32 34  2  0
 25 35  1  0
 35 36  1  0
 35 37  2  0
 20 38  1  0
 38 39  2  0
 12 40  1  0
 40  6  1  0
 39 13  1  0
 37 22  1  0
 34 28  1  0
M  END
$$$$
