
     RDKit          3D

 25 25  0  0  0  0  0  0  0  0999 V2000
   -6.0437   -0.8782   -1.4159 C   0  0  0  0  0  0  0  0  0  0  0  0
   -4.6449   -0.4039   -1.7775 C   0  0  0  0  0  0  0  0  0  0  0  0
   -4.6833    1.0840   -2.0331 C   0  0  0  0  0  0  0  0  0  0  0  0
   -3.7571   -0.7236   -0.5878 C   0  0  0  0  0  0  0  0  0  0  0  0
   -4.2915    0.0076    0.6085 C   0  0  0  0  0  0  0  0  0  0  0  0
   -4.2858    1.4676    0.3579 C   0  0  0  0  0  0  0  0  0  0  0  0
   -2.9643    2.1070    0.1023 C   0  0  1  0  0  0  0  0  0  0  0  0
   -3.2595    3.6065   -0.1440 C   0  0  0  0  0  0  0  0  0  0  0  0
   -2.0384    2.1051    1.3013 C   0  0  0  0  0  3  0  0  0  0  0  0
   -1.6242    0.7694    1.7897 C   0  0  0  0  0  0  0  0  0  0  0  0
   -0.8112   -0.0449    0.8253 C   0  0  0  0  0  0  0  0  0  0  0  0
   -0.4838   -1.3567    1.4833 C   0  0  2  0  0  0  0  0  0  0  0  0
    0.3133   -1.1534    2.7628 C   0  0  0  0  0  0  0  0  0  0  0  0
    0.0838   -2.3998    0.6082 C   0  0  0  0  0  0  0  0  0  0  0  0
    1.3712   -2.0494   -0.0501 C   0  0  0  0  0  0  0  0  0  0  0  0
    2.4435   -1.7346    0.9440 C   0  0  0  0  0  0  0  0  0  0  0  0
    2.7081   -2.8826    1.8923 C   0  0  0  0  0  0  0  0  0  0  0  0
    3.6919   -1.1759    0.3704 C   0  0  0  0  0  0  0  0  0  0  0  0
    3.5307    0.0826   -0.3755 C   0  0  0  0  0  0  0  0  0  0  0  0
    2.6628    0.1446   -1.5778 C   0  0  0  0  0  0  0  0  0  0  0  0
    1.3889    0.9597   -1.4711 C   0  0  0  0  0  1  0  0  0  0  0  0
    3.6885    0.8615   -2.2424 O   0  0  0  0  0  0  0  0  0  0  0  0
    4.5995    0.2017   -1.4715 C   0  0  1  0  0  0  0  0  0  0  0  0
    5.7888    0.9880   -1.0434 C   0  0  0  0  0  0  0  0  0  0  0  0
    6.6168    0.4176   -0.3531 O   0  0  0  0  0  0  0  0  0  0  0  0
  1  2  1  0
  2  3  1  0
  2  4  1  0
  4  5  1  0
  5  6  1  0
  6  7  1  0
  7  8  1  1
  7  9  1  0
  9 10  1  0
 10 11  1  0
 11 12  1  0
 12 13  1  1
 12 14  1  0
 14 15  1  0
 15 16  1  0
 16 17  1  0
 16 18  1  0
 18 19  1  0
 19 20  1  0
 20 21  1  0
 20 22  1  0
 22 23  1  0
 23 24  1  1
 24 25  2  0
 23 19  1  0
M  RAD  2   9   2  21   2
M  END
$$$$
