
     RDKit          3D

 21 20  0  0  0  0  0  0  0  0999 V2000
    6.1700   -1.0421   -0.0288 C   0  0  0  0  0  0  0  0  0  0  0  0
    6.4786    0.4269   -0.1595 C   0  0  0  0  0  0  0  0  0  0  0  0
    7.9299    0.7480    0.0532 C   0  0  0  0  0  0  0  0  0  0  0  0
    5.6226    1.1946    0.7978 C   0  0  0  0  0  0  0  0  0  0  0  0
    4.1615    1.0123    0.5549 C   0  0  0  0  0  0  0  0  0  0  0  0
    3.8011   -0.4613    0.6963 C   0  0  0  0  0  0  0  0  0  0  0  0
    2.3155   -0.6671    0.4522 C   0  0  1  0  0  0  0  0  0  0  0  0
    1.4704    0.1090    1.4310 C   0  0  0  0  0  0  0  0  0  0  0  0
    2.0112   -0.2086   -0.9446 C   0  0  0  0  0  3  0  0  0  0  0  0
    0.5362   -0.3900   -1.2486 C   0  0  0  0  0  0  0  0  0  0  0  0
   -0.2306    0.4356   -0.2545 C   0  0  0  0  0  3  0  0  0  0  0  0
   -1.7037    0.2660   -0.5436 C   0  0  2  0  0  0  0  0  0  0  0  0
   -2.0501    0.7229   -1.9415 C   0  0  0  0  0  0  0  0  0  0  0  0
   -2.5488    1.0555    0.4582 C   0  0  0  0  0  3  0  0  0  0  0  0
   -3.9967    0.8128    0.0737 C   0  0  0  0  0  0  0  0  0  0  0  0
   -4.2407   -0.6716    0.1711 C   0  0  0  0  0  0  0  0  0  0  0  0
   -3.3937   -1.4352   -0.6983 N   0  0  0  0  0  1  0  0  0  0  0  0
   -3.9300   -1.0920    1.5967 C   0  0  0  0  0  0  0  0  0  0  0  0
   -5.7043   -0.9524   -0.1215 C   0  0  0  0  0  0  0  0  0  0  0  0
   -6.5990   -0.2730    0.8258 C   0  0  0  0  0  0  0  0  0  0  0  0
   -6.0994    0.4099    1.7028 O   0  0  0  0  0  0  0  0  0  0  0  0
  1  2  1  0
  2  3  1  0
  2  4  1  0
  4  5  1  0
  5  6  1  0
  6  7  1  0
  7  8  1  1
  7  9  1  0
  9 10  1  0
 10 11  1  0
 11 12  1  0
 12 13  1  6
 12 14  1  0
 14 15  1  0
 15 16  1  0
 16 17  1  0
 16 18  1  0
 16 19  1  0
 19 20  1  0
 20 21  2  0
M  CHG  1  17   1
M  RAD  4   9   2  11   2  14   2  17   2
M  END
$$$$
