
     RDKit          3D

 30 29  0  0  0  0  0  0  0  0999 V2000
   -2.4759    2.8617   -0.9868 C   0  0  0  0  0  0  0  0  0  0  0  0
   -1.9626    2.8720   -2.2093 C   0  0  0  0  0  0  0  0  0  0  0  0
   -2.2093    1.6784   -3.0641 C   0  0  0  0  0  0  0  0  0  0  0  0
   -3.5273    1.0860   -2.6594 C   0  0  0  0  0  0  0  0  0  0  0  0
   -4.1975    0.4634   -3.5569 N   0  0  0  0  0  0  0  0  0  0  0  0
   -5.4013   -0.0833   -3.2078 O   0  0  0  0  0  0  0  0  0  0  0  0
   -5.9640    0.1085   -1.9336 C   0  0  0  0  0  0  0  0  0  0  0  0
   -7.3036   -0.6109   -1.8219 C   0  0  0  0  0  0  0  0  0  0  0  0
   -7.9030   -0.4021   -0.4554 C   0  0  0  0  0  0  0  0  0  0  0  0
   -6.9715   -0.9442    0.6235 C   0  0  0  0  0  0  0  0  0  0  0  0
   -7.5541   -0.7448    1.9989 C   0  0  0  0  0  0  0  0  0  0  0  0
   -8.7691   -1.4206    2.0629 O   0  0  0  0  0  0  0  0  0  0  0  0
   -9.5916   -1.2630    3.6886 Br  0  0  0  0  0  0  0  0  0  0  0  0
   -0.9479    0.4488   -2.6381 S   0  0  0  0  0  0  0  0  0  0  0  0
   -1.2487   -0.0951   -0.9239 C   0  0  0  0  0  0  0  0  0  0  0  0
   -0.2626   -1.1074   -0.4574 C   0  0  0  0  0  0  0  0  0  0  0  0
   -0.2080   -2.7235   -1.4689 Br  0  0  0  0  0  0  0  0  0  0  0  0
    1.0445   -0.5928   -0.0511 C   0  0  0  0  0  0  0  0  0  0  0  0
    2.2082   -0.8650   -0.6165 C   0  0  0  0  0  0  0  0  0  0  0  0
    2.4120   -1.9212   -1.9957 Cl  0  0  0  0  0  0  0  0  0  0  0  0
    3.4221   -0.2321   -0.0387 C   0  0  0  0  0  0  0  0  0  0  0  0
    4.5005   -1.5672    0.4847 S   0  0  0  0  0  0  0  0  0  0  0  0
    5.9791   -0.9964    0.6859 C   0  0  0  0  0  0  0  0  0  0  0  0
    6.2428    0.4424    0.4346 C   0  0  0  0  0  3  0  0  0  0  0  0
    7.2448    0.8954    1.4728 C   0  0  0  0  0  0  0  0  0  0  0  0
    8.9411    0.0229    1.3155 Br  0  0  0  0  0  0  0  0  0  0  0  0
    6.6968    0.7055    2.8821 C   0  0  0  0  0  0  0  0  0  0  0  0
    7.9245    1.2566    4.0935 S   0  0  0  0  0  0  0  0  0  0  0  0
    9.3801    0.2390    4.0952 C   0  0  0  0  0  0  0  0  0  0  0  0
   10.5019    0.6876    4.2473 O   0  0  0  0  0  0  0  0  0  0  0  0
  1  2  2  0
  2  3  1  0
  3  4  1  0
  4  5  2  0
  5  6  1  0
  6  7  1  0
  7  8  1  0
  8  9  1  0
  9 10  1  0
 10 11  1  0
 11 12  1  0
 12 13  1  0
  3 14  1  0
 14 15  1  0
 15 16  1  0
 16 17  1  0
 16 18  1  0
 18 19  2  3
 19 20  1  0
 19 21  1  0
 21 22  1  0
 22 23  2  3
 23 24  1  0
 24 25  1  0
 25 26  1  0
 25 27  1  0
 27 28  1  0
 28 29  1  0
 29 30  2  0
M  RAD  1  24   2
M  END
$$$$
