
     RDKit          3D

 19 20  0  0  0  0  0  0  0  0999 V2000
    0.5386    0.6039    0.6785 C   0  0  0  0  0  0  0  0  0  0  0  0
   -0.4519    1.5574    0.6905 O   0  0  0  0  0  0  0  0  0  0  0  0
   -1.6951    1.0521    0.3182 C   0  0  0  0  0  3  0  0  0  0  0  0
   -1.6331    0.3102   -0.8421 O   0  0  0  0  0  0  0  0  0  0  0  0
   -2.4736   -0.7687   -0.8701 C   0  0  2  0  0  0  0  0  0  0  0  0
   -3.7871   -0.4440   -0.2398 C   0  0  0  0  0  0  0  0  0  0  0  0
   -4.4098    0.6999   -1.0167 C   0  0  0  0  0  2  0  0  0  0  0  0
   -1.8579   -2.0346   -0.3493 C   0  0  1  0  0  0  0  0  0  0  0  0
   -0.3581   -1.8819   -0.1831 C   0  0  1  0  0  0  0  0  0  0  0  0
    0.2748   -1.0249   -1.2112 C   0  0  0  0  0  3  0  0  0  0  0  0
    0.9735    0.1860   -0.6960 C   0  0  1  0  0  0  0  0  0  0  0  0
    0.7854    1.3483   -1.6816 C   0  0  0  0  0  0  0  0  0  0  0  0
    1.5674    2.3918   -1.2198 O   0  0  0  0  0  0  0  0  0  0  0  0
    2.4637   -0.0796   -0.6516 C   0  0  0  0  0  0  0  0  0  0  0  0
    3.1633    1.0775   -0.2650 O   0  0  0  0  0  0  0  0  0  0  0  0
    4.5210    0.8656   -0.2160 C   0  0  0  0  0  3  0  0  0  0  0  0
    4.7668   -0.4826   -0.0378 O   0  0  0  0  0  0  0  0  0  0  0  0
   -1.8175   -2.0158    1.1687 C   0  0  0  0  0  0  0  0  0  0  0  0
   -0.5702   -1.3604    1.0637 O   0  0  0  0  0  0  0  0  0  0  0  0
  1  2  1  0
  2  3  1  0
  3  4  1  0
  4  5  1  0
  5  6  1  1
  6  7  1  0
  5  8  1  0
  8  9  1  0
  9 10  1  6
 10 11  1  0
 11 12  1  6
 12 13  1  0
 11 14  1  0
 14 15  1  0
 15 16  1  0
 16 17  1  0
  8 18  1  1
 18 19  1  0
 11  1  1  0
 19  9  1  0
M  RAD  4   3   2   7   3  10   2  16   2
M  END
$$$$
