
     RDKit          3D

 21 22  0  0  0  0  0  0  0  0999 V2000
    0.8611   -0.9817    4.1162 C   0  0  0  0  0  0  0  0  0  0  0  0
    1.6156   -0.7950    2.9613 O   0  0  0  0  0  0  0  0  0  0  0  0
    1.0720   -0.4726    1.7214 C   0  0  0  0  0  0  0  0  0  0  0  0
    1.7485   -0.2733    0.5408 C   0  0  0  0  0  0  0  0  0  0  0  0
    0.6275   -0.0398   -0.0653 C   0  0  0  0  0  0  0  0  0  0  0  0
   -0.3810    0.0844   -0.2181 C   0  0  0  0  0  0  0  0  0  0  0  0
   -1.2595   -0.0574    0.7930 C   0  0  0  0  0  0  0  0  0  0  0  0
   -0.4125   -0.3519    1.7815 C   0  0  0  0  0  0  0  0  0  0  0  0
   -2.1802    0.2821   -0.3692 C   0  0  0  0  0  0  0  0  0  0  0  0
   -3.0886   -0.8826   -0.6710 C   0  0  0  0  0  0  0  0  0  0  0  0
   -3.8794   -1.1392    0.5621 C   0  0  0  0  0  0  0  0  0  0  0  0
   -5.1939   -1.0773    0.6086 C   0  0  0  0  0  0  0  0  0  0  0  0
   -6.0785   -0.7537   -0.5167 C   0  0  0  0  0  0  0  0  0  0  0  0
   -1.2373    0.3578   -1.7294 C   0  0  0  0  0  0  0  0  0  0  0  0
    0.0408    0.8045   -1.7520 N   0  0  0  0  0  3  0  0  0  0  0  0
    0.0051    2.2715   -2.0338 C   0  0  0  0  0  0  0  0  0  0  0  0
    1.3845    0.4813   -1.7917 C   0  0  0  0  0  0  0  0  0  0  0  0
    2.2991   -0.0270   -0.7979 C   0  0  0  0  0  0  0  0  0  0  0  0
    3.6179   -0.1942   -1.3320 C   0  0  0  0  0  0  0  0  0  0  0  0
    4.5623   -0.6385   -0.5844 N   0  0  0  0  0  3  0  0  0  0  0  0
    5.8765   -0.7744   -1.2235 C   0  0  0  0  0  0  0  0  0  0  0  0
  1  2  1  0
  2  3  1  0
  3  4  2  0
  4  5  1  0
  5  6  2  0
  6  7  1  0
  7  8  2  0
  7  9  1  0
  9 10  1  0
 10 11  1  0
 11 12  2  3
 12 13  1  0
  9 14  1  0
 14 15  1  0
 15 16  1  0
 15 17  1  0
 17 18  2  3
 18 19  1  0
 19 20  2  3
 20 21  1  0
  8  3  1  0
 18  4  1  0
M  CHG  2  15   1  20   1
M  RAD  2  15   2  20   2
M  END
$$$$
