
     RDKit          3D

 25 25  0  0  0  0  0  0  0  0999 V2000
    6.2474    1.3527   -0.4347 C   0  0  0  0  0  0  0  0  0  0  0  0
    5.6893    0.7304    0.8091 C   0  0  0  0  0  3  0  0  0  0  0  0
    5.0911   -0.6072    0.4435 C   0  0  0  0  0  0  0  0  0  0  0  0
    3.9926   -0.4932   -0.5611 C   0  0  2  0  0  0  0  0  0  0  0  0
    4.4497    0.0819   -1.7447 O   0  0  0  0  0  0  0  0  0  0  0  0
    2.7435    0.1497   -0.0363 C   0  0  2  0  0  0  0  0  0  0  0  0
    3.0078    1.5041    0.2123 O   0  0  0  0  0  0  0  0  0  0  0  0
    2.3757   -0.5051    1.2621 C   0  0  1  0  0  0  0  0  0  0  0  0
    3.4013   -0.4081    2.1910 O   0  0  0  0  0  0  0  0  0  0  0  0
    1.0516   -0.0198    1.8136 C   0  0  0  0  0  3  0  0  0  0  0  0
   -0.0146   -0.3368    0.7937 C   0  0  2  0  0  0  0  0  0  0  0  0
   -1.3778    0.0898    1.2106 C   0  0  0  0  0  3  0  0  0  0  0  0
   -2.2364    0.6204    0.1132 C   0  0  0  0  0  0  0  0  0  0  0  0
   -3.4948    1.1905    0.7343 C   0  0  0  0  0  0  0  0  0  0  0  0
   -3.2454    2.2139    1.6232 O   0  0  0  0  0  0  0  0  0  0  0  0
   -4.3992    1.7154   -0.3746 C   0  0  0  0  0  0  0  0  0  0  0  0
   -5.6041    2.1744    0.1262 O   0  0  0  0  0  0  0  0  0  0  0  0
   -4.2276    0.0456    1.4376 C   0  0  0  0  0  2  0  0  0  0  0  0
   -0.0069   -1.7763    0.3751 C   0  0  0  0  0  0  0  0  0  0  0  0
   -1.1801   -2.1466   -0.2290 O   0  0  0  0  0  0  0  0  0  0  0  0
   -1.5391   -1.3361   -1.3011 C   0  0  2  0  0  0  0  0  0  0  0  0
   -0.3704   -0.6300   -1.9238 C   0  0  0  0  0  2  0  0  0  0  0  0
   -2.6447   -0.3973   -0.9029 C   0  0  1  0  0  0  0  0  0  0  0  0
   -3.7235   -1.1846   -0.4652 O   0  0  0  0  0  0  0  0  0  0  0  0
   -3.9851   -2.0278   -1.4301 O   0  0  0  0  0  0  0  0  0  0  0  0
  1  2  1  0
  2  3  1  0
  3  4  1  0
  4  5  1  6
  4  6  1  0
  6  7  1  1
  6  8  1  0
  8  9  1  1
  8 10  1  0
 11 10  1  1
 11 12  1  0
 12 13  1  0
 13 14  1  0
 14 15  1  0
 14 16  1  0
 16 17  1  0
 14 18  1  0
 11 19  1  0
 19 20  1  0
 20 21  1  0
 21 22  1  1
 21 23  1  0
 23 24  1  1
 24 25  1  0
 23 13  1  0
M  RAD  5   2   2  10   2  12   2  18   3  22   3
M  END
$$$$
