
     RDKit          3D

 24 25  0  0  0  0  0  0  0  0999 V2000
    1.7967   -2.4366   -0.7339 C   0  0  0  0  0  0  0  0  0  0  0  0
    2.4461   -1.5400    0.3050 C   0  0  1  0  0  0  0  0  0  0  0  0
    3.9045   -1.8151    0.3105 C   0  0  0  0  0  0  0  0  0  0  0  0
    4.7751   -0.7031   -0.1662 C   0  0  2  0  0  0  0  0  0  0  0  0
    6.1029   -1.0537    0.1005 O   0  0  0  0  0  0  0  0  0  0  0  0
    4.3999    0.5239    0.6793 C   0  0  2  0  0  0  0  0  0  0  0  0
    4.2489    0.0659    2.0038 O   0  0  0  0  0  0  0  0  0  0  0  0
    3.0301    0.9266    0.2125 C   0  0  1  0  0  0  0  0  0  0  0  0
    3.0962    1.5487   -1.0282 O   0  0  0  0  0  0  0  0  0  0  0  0
    2.0194   -0.1429    0.2552 C   0  0  1  0  0  0  0  0  0  0  0  0
    0.9317    0.1803   -0.6314 N   0  0  0  0  0  0  0  0  0  0  0  0
   -0.3091   -0.4704   -0.2824 C   0  0  0  0  0  3  0  0  0  0  0  0
   -1.5134    0.3155   -0.4772 C   0  0  0  0  0  0  0  0  0  0  0  0
   -1.7102    1.6008    0.1646 C   0  0  1  0  0  0  0  0  0  0  0  0
   -0.6739    2.5005   -0.1247 O   0  0  0  0  0  0  0  0  0  0  0  0
   -3.0192    2.2723   -0.0789 C   0  0  0  0  0  0  0  0  0  0  0  0
   -4.0443    1.8254    0.7460 O   0  0  0  0  0  0  0  0  0  0  0  0
   -4.6675    0.8022    0.1707 O   0  0  0  0  0  0  0  0  0  0  0  0
   -3.9494   -0.3556    0.4529 C   0  0  1  0  0  0  0  0  0  0  0  0
   -4.7063   -1.2097    1.2527 O   0  0  0  0  0  0  0  0  0  0  0  0
   -3.5930   -1.0115   -0.8695 C   0  0  2  0  0  0  0  0  0  0  0  0
   -3.2030   -2.3267   -0.6190 O   0  0  0  0  0  0  0  0  0  0  0  0
   -2.4501   -0.2101   -1.4659 C   0  0  1  0  0  0  0  0  0  0  0  0
   -2.9122    0.7132   -2.3871 O   0  0  0  0  0  0  0  0  0  0  0  0
  2  1  1  6
  2  3  1  0
  3  4  1  0
  4  5  1  1
  4  6  1  0
  6  7  1  1
  6  8  1  0
  8  9  1  6
  8 10  1  0
 10 11  1  6
 11 12  1  0
 12 13  1  0
 13 14  1  0
 14 15  1  6
 14 16  1  0
 16 17  1  0
 17 18  1  0
 18 19  1  0
 19 20  1  1
 19 21  1  0
 21 22  1  1
 21 23  1  0
 23 24  1  1
 10  2  1  0
 23 13  1  0
M  RAD  1  12   2
M  END
$$$$
