
     RDKit          3D

 83 89  0  0  0  0  0  0  0  0999 V2000
  -11.7524   -0.4634   -3.8273 C   0  0  0  0  0  0  0  0  0  0  0  0
  -12.7708   -1.1833   -2.9227 C   0  0  0  0  0  0  0  0  0  0  0  0
  -12.2591   -2.6720   -3.0296 C   0  0  0  0  0  0  0  0  0  0  0  0
  -12.4658   -0.8274   -1.5170 C   0  0  0  0  0  0  0  0  0  0  0  0
  -12.8963   -1.7181   -0.6755 O   0  0  0  0  0  0  0  0  0  0  0  0
  -11.8120    0.2689   -1.0137 N   0  0  0  0  0  0  0  0  0  0  0  0
  -11.5203    0.6141    0.3376 C   0  0  0  0  0  0  0  0  0  0  0  0
  -12.0912   -0.2757    1.2808 C   0  0  0  0  0  0  0  0  0  0  0  0
  -13.2796    0.0630    1.9933 O   0  0  0  0  0  0  0  0  0  0  0  0
  -11.6583   -1.5434    1.6702 C   0  0  0  0  0  0  0  0  0  0  0  0
  -10.4221   -2.1324    1.0798 C   0  0  0  0  0  0  0  0  0  0  0  0
   -9.3082   -1.3080    0.7173 C   0  0  0  0  0  0  0  0  0  0  0  0
   -8.2253   -1.8691    0.1410 C   0  0  0  0  0  0  0  0  0  0  0  0
   -8.1994   -3.2603   -0.0938 C   0  0  0  0  0  0  0  0  0  0  0  0
   -9.2900   -4.0583    0.2671 C   0  0  0  0  0  0  0  0  0  0  0  0
  -10.3778   -3.4371    0.8515 C   0  0  0  0  0  0  0  0  0  0  0  0
  -10.2056    0.9912    0.6432 N   0  0  0  0  0  0  0  0  0  0  0  0
   -9.2062    0.1157    1.0280 C   0  0  0  0  0  0  0  0  0  0  0  0
   -7.8706    0.6341    0.8944 C   0  0  0  0  0  0  0  0  0  0  0  0
   -7.2731    0.5876   -0.4352 C   0  0  0  0  0  0  0  0  0  0  0  0
   -6.9524    0.8202    2.0078 C   0  0  0  0  0  0  0  0  0  0  0  0
   -5.9317   -0.0001    2.4348 C   0  0  0  0  0  0  0  0  0  0  0  0
   -5.4466   -1.3034    1.9126 C   0  0  0  0  0  0  0  0  0  0  0  0
   -5.1347   -1.5787    0.6330 C   0  0  0  0  0  0  0  0  0  0  0  0
   -5.1415   -0.8020   -0.6203 C   0  0  0  0  0  0  0  0  0  0  0  0
   -5.8260    0.5361   -0.5791 C   0  0  0  0  0  0  0  0  0  0  0  0
   -5.6269    1.1595   -2.0152 C   0  0  0  0  0  0  0  0  0  0  0  0
   -4.7517    2.3999   -1.9045 C   0  0  0  0  0  0  0  0  0  0  0  0
   -5.4913    3.6102   -1.8192 C   0  0  0  0  0  0  0  0  0  0  0  0
   -5.8688    4.3295   -2.9102 C   0  0  0  0  0  0  0  0  0  0  0  0
   -5.0327    1.4515    0.3698 C   0  0  0  0  0  0  0  0  0  0  0  0
   -3.6202    1.4788   -0.0662 C   0  0  0  0  0  0  0  0  0  0  0  0
   -3.5195    2.0341   -1.3665 C   0  0  0  0  0  0  0  0  0  0  0  0
   -2.1602    2.0003   -1.8550 C   0  0  0  0  0  0  0  0  0  0  0  0
   -1.3262    3.1181   -1.4723 C   0  0  0  0  0  0  0  0  0  0  0  0
   -1.6545    4.1669   -0.6867 C   0  0  0  0  0  0  0  0  0  0  0  0
   -2.7844    4.5088   -0.0600 C   0  0  0  0  0  0  0  0  0  0  0  0
   -3.2422    5.5042    0.7293 C   0  0  0  0  0  0  0  0  0  0  0  0
   -4.6921    5.2019    1.0756 C   0  0  0  0  0  0  0  0  0  0  0  0
   -5.5120    5.8922    1.7577 C   0  0  0  0  0  0  0  0  0  0  0  0
   -2.4473    0.9430    0.4838 C   0  0  0  0  0  0  0  0  0  0  0  0
   -1.8644    0.5072    1.3385 C   0  0  0  0  0  0  0  0  0  0  0  0
   -1.3031   -0.0187    2.5541 C   0  0  0  0  0  0  0  0  0  0  0  0
   -0.0211   -0.5627    2.3637 C   0  0  0  0  0  0  0  0  0  0  0  0
    0.5326   -0.5806    1.1000 C   0  0  0  0  0  0  0  0  0  0  0  0
    1.3755   -0.7854    0.2927 C   0  0  0  0  0  0  0  0  0  0  0  0
    1.4633   -0.6124   -1.1493 C   0  0  0  0  0  0  0  0  0  0  0  0
    2.4002   -0.9087   -1.9400 C   0  0  0  0  0  0  0  0  0  0  0  0
    3.7422   -1.5037   -1.6919 C   0  0  0  0  0  0  0  0  0  0  0  0
    4.5049   -1.8758   -2.7567 C   0  0  0  0  0  0  0  0  0  0  0  0
    5.5193   -2.3527   -3.4103 C   0  0  0  0  0  0  0  0  0  0  0  0
    6.9701   -2.6623   -2.8868 C   0  0  0  0  0  0  0  0  0  0  0  0
    6.8895   -2.3174   -1.6518 C   0  0  0  0  0  0  0  0  0  0  0  0
    6.8217   -2.0131   -0.5710 C   0  0  0  0  0  0  0  0  0  0  0  0
    6.7610   -1.6687    0.6322 C   0  0  0  0  0  0  0  0  0  0  0  0
    5.9255   -2.0717    1.8415 C   0  0  0  0  0  0  0  0  0  0  0  0
    4.6385   -2.1617    1.8998 C   0  0  0  0  0  0  0  0  0  0  0  0
    3.5516   -1.8836    0.8597 C   0  0  0  0  0  0  0  0  0  0  0  0
    4.1160   -1.4816   -0.2861 C   0  0  0  0  0  0  0  0  0  0  0  0
    5.3883   -1.0632    0.0223 C   0  0  0  0  0  0  0  0  0  0  0  0
    5.4567   -2.8595   -0.3785 C   0  0  0  0  0  0  0  0  0  0  0  0
    5.9176   -0.2643   -0.9488 C   0  0  0  0  0  0  0  0  0  0  0  0
    6.9124    0.4187   -1.3131 C   0  0  0  0  0  0  0  0  0  0  0  0
    8.1990    0.6504   -0.5809 C   0  0  0  0  0  0  0  0  0  0  0  0
    8.7403    1.7727   -1.3057 O   0  0  0  0  0  0  0  0  0  0  0  0
    9.9180    2.1385   -0.9580 O   0  0  0  0  0  0  0  0  0  0  0  0
    9.9743    2.6359    0.2281 O   0  0  0  0  0  0  0  0  0  0  0  0
    8.7631    3.2470    0.5464 C   0  0  0  0  0  0  0  0  0  0  0  0
    8.8692    3.7769    2.0010 C   0  0  0  0  0  0  0  0  0  0  0  0
    9.2553   -0.3178   -0.4751 C   0  0  0  0  0  0  0  0  0  0  0  0
    9.9762   -0.9086   -1.5788 C   0  0  0  0  0  0  0  0  0  0  0  0
    9.8572   -0.4675    0.8678 C   0  0  0  0  0  0  0  0  0  0  0  0
   10.9549   -1.4416    0.9088 C   0  0  0  0  0  0  0  0  0  0  0  0
   10.9634   -2.5835    1.6528 C   0  0  0  0  0  0  0  0  0  0  0  0
   12.1316   -3.2227    1.4505 C   0  0  0  0  0  0  0  0  0  0  0  0
   12.7047   -4.3190    1.8698 O   0  0  0  0  0  0  0  0  0  0  0  0
   12.9598   -2.3717    0.4713 N   0  0  0  0  0  0  0  0  0  0  0  0
   12.1752   -1.3525    0.2085 C   0  0  0  0  0  0  0  0  0  0  0  0
   12.6259   -0.2235   -0.7369 C   0  0  0  0  0  0  0  0  0  0  0  0
   12.7154    1.0129   -0.0277 C   0  0  0  0  0  0  0  0  0  0  0  0
   12.8339    1.1223    1.3751 C   0  0  0  0  0  0  0  0  0  0  0  0
   12.8563    2.6524    1.6875 C   0  0  0  0  0  0  0  0  0  0  0  0
   12.8753    2.9244    2.9396 C   0  0  0  0  0  0  0  0  0  0  0  0
  1  2  1  0
  2  3  1  0
  2  4  1  0
  4  5  2  0
  4  6  1  0
  6  7  1  0
  7  8  1  0
  8  9  1  0
  8 10  2  0
 10 11  1  0
 11 12  2  0
 12 13  1  0
 13 14  2  0
 14 15  1  0
 15 16  2  0
  7 17  1  0
 17 18  1  0
 18 19  1  0
 19 20  1  0
 19 21  1  0
 21 22  2  3
 22 23  1  0
 23 24  2  3
 24 25  1  0
 25 26  1  0
 26 27  1  0
 27 28  1  0
 28 29  1  0
 29 30  2  0
 26 31  1  0
 31 32  1  0
 32 33  2  0
 33 34  1  0
 34 35  1  0
 35 36  2  3
 36 37  1  0
 37 38  2  3
 38 39  1  0
 39 40  2  0
 32 41  1  0
 41 42  2  3
 42 43  1  0
 43 44  2  3
 44 45  1  0
 45 46  2  3
 46 47  1  0
 47 48  2  3
 48 49  1  0
 49 50  2  3
 50 51  1  0
 51 52  2  3
 52 53  1  0
 53 54  3  0
 54 55  1  0
 55 56  1  0
 56 57  2  0
 57 58  1  0
 58 59  2  0
 59 60  1  0
 60 61  1  0
 60 62  1  0
 62 63  2  3
 63 64  1  0
 64 65  1  0
 65 66  1  0
 66 67  1  0
 67 68  1  0
 68 69  1  0
 64 70  1  0
 70 71  1  0
 70 72  1  0
 72 73  1  0
 73 74  2  0
 74 75  1  0
 75 76  2  0
 75 77  1  0
 77 78  2  0
 78 79  1  0
 79 80  1  0
 80 81  2  3
 81 82  1  0
 82 83  2  0
 16 11  1  0
 18 12  1  0
 26 20  1  0
 33 28  1  0
 59 49  1  0
 60 55  1  0
 78 73  1  0
M  END
$$$$
