
     RDKit          3D

 24 26  0  0  0  0  0  0  0  0999 V2000
   -2.7574   -2.6959    2.5254 C   0  0  0  0  0  0  0  0  0  0  0  0
   -1.5091   -2.0165    1.9563 C   0  0  0  0  0  0  0  0  0  0  0  0
   -1.8018   -1.7232    0.5112 C   0  0  0  0  0  0  0  0  0  0  0  0
   -3.0255   -0.7922    0.3737 C   0  0  0  0  0  0  0  0  0  0  0  0
   -2.8238    0.5960    0.8259 C   0  0  0  0  0  0  0  0  0  0  0  0
   -3.0941    1.7014   -0.1163 C   0  0  0  0  0  0  0  0  0  0  0  0
   -2.0142    3.1404   -0.0153 S   0  0  0  0  0  0  0  0  0  0  0  0
   -0.4926    2.8925   -0.9935 C   0  0  0  0  0  0  0  0  0  0  0  0
    0.3468    2.1799   -0.4698 N   0  0  0  0  0  0  0  0  0  0  0  0
    1.6187    1.6669   -0.7275 C   0  0  0  0  0  0  0  0  0  0  0  0
    1.5515    1.2770   -2.1938 C   0  0  0  0  0  0  0  0  0  0  0  0
    0.5956    0.6941   -2.9210 C   0  0  0  0  0  0  0  0  0  0  0  0
   -0.7274    0.2095   -2.4404 C   0  0  0  0  0  0  0  0  0  0  0  0
   -1.1563   -0.4995   -1.4163 C   0  0  0  0  0  0  0  0  0  0  0  0
   -2.4151   -0.9585   -1.7915 O   0  0  0  0  0  0  0  0  0  0  0  0
   -0.6851   -0.8877   -0.1130 C   0  0  0  0  0  0  0  0  0  0  0  0
   -0.5797    0.1379    0.9657 C   0  0  0  0  0  0  0  0  0  0  0  0
    0.1758    0.0236    2.0169 C   0  0  0  0  0  0  0  0  0  0  0  0
    0.6266   -1.4775   -0.1059 N   0  0  0  0  0  0  0  0  0  0  0  0
    1.7242   -0.0643   -0.0233 S   0  0  0  0  0  0  0  0  0  0  0  0
    3.2487   -0.4845    0.4045 C   0  0  0  0  0  0  0  0  0  0  0  0
    4.2237   -1.3366    0.9094 C   0  0  0  0  0  0  0  0  0  0  0  0
    4.6417   -0.0058    0.4526 O   0  0  0  0  0  0  0  0  0  0  0  0
    4.3289   -1.5769    2.3860 C   0  0  0  0  0  1  0  0  0  0  0  0
  1  2  1  0
  2  3  1  0
  3  4  1  0
  4  5  1  0
  5  6  1  0
  6  7  1  0
  7  8  1  0
  8  9  2  3
  9 10  1  0
 10 11  1  0
 11 12  2  3
 12 13  1  0
 13 14  2  3
 14 15  1  0
 14 16  1  0
 16 17  1  0
 17 18  2  0
 16 19  1  0
 10 20  1  0
 20 21  2  3
 21 22  1  0
 22 23  1  0
 22 24  1  0
 16  3  1  0
 20 19  1  0
 23 21  1  0
M  RAD  1  24   2
M  END
$$$$
