
     RDKit          3D

 13 13  0  0  0  0  0  0  0  0999 V2000
   -2.9656   -0.4171    0.1685 C   0  0  0  0  0  0  0  0  0  0  0  0
   -4.3913   -0.4205    0.0312 N   0  0  0  0  0  0  0  0  0  0  0  0
   -2.2636   -1.0360   -1.0167 C   0  0  0  0  0  0  0  0  0  0  0  0
   -0.8358   -1.0333   -0.8780 N   0  0  0  0  0  0  0  0  0  0  0  0
   -0.0852    0.1896   -0.7293 C   0  0  0  0  0  0  0  0  0  0  0  0
   -0.7283    1.3949   -0.7173 C   0  0  0  0  0  0  0  0  0  0  0  0
   -0.0307    2.5740   -0.5772 C   0  0  0  0  0  0  0  0  0  0  0  0
    1.3428    2.5777   -0.4442 C   0  0  0  0  0  0  0  0  0  0  0  0
    1.9780    1.3550   -0.4579 C   0  0  0  0  0  0  0  0  0  0  0  0
    1.2862    0.1535   -0.5988 C   0  0  0  0  0  0  0  0  0  0  0  0
    1.9445   -1.1584   -0.6156 C   0  0  0  0  0  0  0  0  0  0  0  0
    1.8085   -1.9256    0.6313 C   0  0  0  0  0  0  0  0  0  0  0  0
    2.9406   -2.2537    1.2665 C   0  0  0  0  0  0  0  0  0  0  0  0
  1  2  1  0
  1  3  1  0
  3  4  1  0
  4  5  1  0
  5  6  2  0
  6  7  1  0
  7  8  2  0
  8  9  1  0
  9 10  2  0
 10 11  1  0
 11 12  1  0
 12 13  2  0
 10  5  1  0
M  END
$$$$
