
     RDKit          3D

 65 67  0  0  0  0  0  0  0  0999 V2000
   -5.6082    6.3474    0.3122 C   0  0  0  0  0  0  0  0  0  0  0  0
   -6.0272    5.1037    0.7775 O   0  0  0  0  0  0  0  0  0  0  0  0
   -5.2322    4.0820    0.3118 C   0  0  0  0  0  3  0  0  0  0  0  0
   -5.8596    3.2687   -0.6261 O   0  0  0  0  0  0  0  0  0  0  0  0
   -4.9436    2.8517   -1.6188 C   0  0  2  0  0  0  0  0  0  0  0  0
   -5.7180    1.9792   -2.5830 C   0  0  0  0  0  0  0  0  0  0  0  0
   -3.8896    2.0345   -0.8978 C   0  0  0  0  0  3  0  0  0  0  0  0
   -4.5781    0.9458   -0.1479 C   0  0  1  0  0  0  0  0  0  0  0  0
   -5.3711    0.0073   -0.9926 C   0  0  0  0  0  3  0  0  0  0  0  0
   -6.0006   -1.0297   -0.0813 C   0  0  0  0  0  3  0  0  0  0  0  0
   -7.3511   -1.3741   -0.6204 C   0  0  0  0  0  0  0  0  0  0  0  0
   -7.2720   -1.9346   -2.0086 C   0  0  0  0  0  0  0  0  0  0  0  0
   -6.4132   -1.5582   -2.7746 O   0  0  0  0  0  0  0  0  0  0  0  0
   -7.9456   -2.4416    0.2963 C   0  0  0  0  0  0  0  0  0  0  0  0
   -9.1517   -1.9298    0.7960 O   0  0  0  0  0  0  0  0  0  0  0  0
  -10.1537   -2.5333    0.2056 O   0  0  0  0  0  0  0  0  0  0  0  0
   -9.7591   -3.1405   -0.9732 C   0  0  0  0  0  3  0  0  0  0  0  0
  -10.1272   -2.4103   -2.1011 O   0  0  0  0  0  0  0  0  0  0  0  0
   -9.5332   -1.1745   -2.1665 C   0  0  0  0  0  0  0  0  0  0  0  0
   -9.5289   -0.4834   -0.9741 O   0  0  0  0  0  0  0  0  0  0  0  0
   -8.2092   -0.1536   -0.6697 C   0  0  1  0  0  0  0  0  0  0  0  0
   -8.1161    0.6762    0.5930 C   0  0  0  0  0  3  0  0  0  0  0  0
   -8.9050    1.7989    0.5484 O   0  0  0  0  0  0  0  0  0  0  0  0
   -8.4601    2.7961    1.2751 O   0  0  0  0  0  0  0  0  0  0  0  0
   -9.5006    3.6423    1.6768 C   0  0  0  0  0  2  0  0  0  0  0  0
   -3.7558    0.2845    0.9003 C   0  0  0  0  0  3  0  0  0  0  0  0
   -3.3421    1.1998    1.8619 O   0  0  0  0  0  0  0  0  0  0  0  0
   -2.0729    0.8799    2.2874 C   0  0  0  0  0  0  0  0  0  0  0  0
   -1.0351    0.8906    1.2118 C   0  0  0  0  0  3  0  0  0  0  0  0
   -0.8206   -0.4079    0.5163 C   0  0  1  0  0  0  0  0  0  0  0  0
   -1.6516   -0.7460   -0.5249 O   0  0  0  0  0  0  0  0  0  0  0  0
   -0.5392   -1.2977   -1.1751 C   0  0  2  0  0  0  0  0  0  0  0  0
   -0.3213   -2.5887   -0.6950 O   0  0  0  0  0  0  0  0  0  0  0  0
    0.2817   -0.2231   -0.5379 C   0  0  2  0  0  0  0  0  0  0  0  0
    1.4908   -0.5933    0.0021 O   0  0  0  0  0  0  0  0  0  0  0  0
    2.4650   -0.4102   -0.9881 C   0  0  0  0  0  3  0  0  0  0  0  0
    3.0334   -1.6517   -1.2393 O   0  0  0  0  0  0  0  0  0  0  0  0
    4.1813   -1.7797   -0.4676 C   0  0  1  0  0  0  0  0  0  0  0  0
    4.7949   -3.0198   -0.6704 O   0  0  0  0  0  0  0  0  0  0  0  0
    5.9335   -3.0839    0.1280 C   0  0  0  0  0  3  0  0  0  0  0  0
    5.8311   -4.2270    1.1028 C   0  0  0  0  0  3  0  0  0  0  0  0
    6.0391   -5.4199    0.4503 O   0  0  0  0  0  0  0  0  0  0  0  0
    6.3932   -5.2477   -0.8696 C   0  0  0  0  0  3  0  0  0  0  0  0
    7.4057   -6.1233   -1.2208 O   0  0  0  0  0  0  0  0  0  0  0  0
    7.5751   -7.0627   -0.1919 C   0  0  2  0  0  0  0  0  0  0  0  0
    8.6760   -8.0380   -0.5418 C   0  0  0  0  0  0  0  0  0  0  0  0
    8.8104   -8.9448    0.4959 O   0  0  0  0  0  0  0  0  0  0  0  0
    6.2481   -7.7733   -0.0105 C   0  0  0  0  0  3  0  0  0  0  0  0
    5.8139   -8.4979   -1.2468 C   0  0  0  0  0  2  0  0  0  0  0  0
    5.1248   -0.6438   -0.7956 C   0  0  2  0  0  0  0  0  0  0  0  0
    6.2778   -0.8047   -0.0191 O   0  0  0  0  0  0  0  0  0  0  0  0
    4.4477    0.6551   -0.3539 C   0  0  0  0  0  3  0  0  0  0  0  0
    5.2465    1.7487   -0.6185 O   0  0  0  0  0  0  0  0  0  0  0  0
    4.9681    2.7702    0.1561 O   0  0  0  0  0  0  0  0  0  0  0  0
    5.9467    3.7448    0.0469 C   0  0  1  0  0  0  0  0  0  0  0  0
    5.5881    4.9084    0.9575 C   0  0  0  0  0  3  0  0  0  0  0  0
    6.3054    4.5825    2.2379 C   0  0  0  0  0  3  0  0  0  0  0  0
    6.8869    3.3228    2.0506 O   0  0  0  0  0  0  0  0  0  0  0  0
    7.2291    3.2361    0.7137 C   0  0  2  0  0  0  0  0  0  0  0  0
    8.3117    4.2156    0.3719 C   0  0  0  0  0  0  0  0  0  0  0  0
    8.5117    4.3138   -1.1257 C   0  0  0  0  0  3  0  0  0  0  0  0
    9.5963    5.2958   -1.4549 C   0  0  0  0  0  3  0  0  0  0  0  0
    9.8904    6.0632   -0.3484 O   0  0  0  0  0  0  0  0  0  0  0  0
    8.8071    6.8256    0.0856 C   0  0  0  0  0  3  0  0  0  0  0  0
    9.0824    8.2780   -0.2727 C   0  0  0  0  0  2  0  0  0  0  0  0
  1  2  1  0
  2  3  1  0
  3  4  1  0
  4  5  1  0
  5  6  1  6
  5  7  1  0
  8  7  1  6
  8  9  1  0
  9 10  1  0
 10 11  1  0
 11 12  1  0
 12 13  2  0
 11 14  1  0
 14 15  1  0
 15 16  1  0
 16 17  1  0
 17 18  1  0
 18 19  1  0
 19 20  1  0
 20 21  1  0
 21 22  1  1
 22 23  1  0
 23 24  1  0
 24 25  1  0
  8 26  1  0
 26 27  1  0
 27 28  1  0
 28 29  1  0
 30 29  1  6
 30 31  1  0
 31 32  1  0
 32 33  1  1
 32 34  1  0
 34 35  1  1
 35 36  1  0
 36 37  1  0
 38 37  1  6
 38 39  1  0
 39 40  1  0
 40 41  1  0
 41 42  1  0
 42 43  1  0
 43 44  1  0
 44 45  1  0
 45 46  1  6
 46 47  1  0
 45 48  1  0
 48 49  1  0
 38 50  1  0
 50 51  1  1
 50 52  1  0
 52 53  1  0
 53 54  1  0
 55 54  1  1
 55 56  1  0
 56 57  1  0
 57 58  1  0
 58 59  1  0
 59 60  1  1
 60 61  1  0
 61 62  1  0
 62 63  1  0
 63 64  1  0
 64 65  1  0
 21 11  1  0
 34 30  1  0
 59 55  1  0
M  RAD  8   3   2   7   2   9   2  10   2  17   2  22   2  25   3  26   2
M  RAD  8  29   2  36   2  40   2  41   2  43   2  48   2  49   3  52   2
M  RAD  6  56   2  57   2  61   2  62   2  64   2  65   3
M  END
$$$$
