
     RDKit          3D

 21 20  0  0  0  0  0  0  0  0999 V2000
    7.2588   -0.7265   -0.2126 C   0  0  0  0  0  0  0  0  0  0  0  0
    6.4975   -0.2736    1.0133 C   0  0  0  0  0  0  0  0  0  0  0  0
    6.9724   -1.0143    2.2451 C   0  0  0  0  0  0  0  0  0  0  0  0
    5.0189   -0.5802    0.7911 C   0  0  0  0  0  0  0  0  0  0  0  0
    4.2957   -0.1130    2.0367 C   0  0  0  0  0  0  0  0  0  0  0  0
    2.8084   -0.3884    1.8857 C   0  0  0  0  0  0  0  0  0  0  0  0
    2.3303    0.3806    0.6680 C   0  0  1  0  0  0  0  0  0  0  0  0
    3.0993   -0.1088   -0.5403 C   0  0  0  0  0  0  0  0  0  0  0  0
    0.8628    0.1022    0.4197 C   0  0  0  0  0  3  0  0  0  0  0  0
    0.4489    0.8967   -0.8047 C   0  0  0  0  0  3  0  0  0  0  0  0
   -0.2016   -0.0325   -1.8046 C   0  0  0  0  0  0  0  0  0  0  0  0
   -1.4145   -0.6445   -1.1275 C   0  0  1  0  0  0  0  0  0  0  0  0
   -0.9737   -1.4192    0.1147 C   0  0  0  0  0  0  0  0  0  0  0  0
   -2.3553    0.4673   -0.7121 C   0  0  0  0  0  3  0  0  0  0  0  0
   -3.5649   -0.1379   -0.0374 C   0  0  0  0  0  0  0  0  0  0  0  0
   -4.4819    0.9494    0.3672 C   0  0  1  0  0  0  0  0  0  0  0  0
   -3.8588    1.9349    1.3336 C   0  0  0  0  0  0  0  0  0  0  0  0
   -5.3200    1.5578   -0.6607 C   0  0  0  0  0  0  0  0  0  0  0  0
   -6.2622    0.7156   -1.3527 C   0  0  0  0  0  0  0  0  0  0  0  0
   -5.8924   -0.4468   -2.1438 C   0  0  0  0  0  0  0  0  0  0  0  0
   -5.2677   -1.4556   -1.4785 F   0  0  0  0  0  0  0  0  0  0  0  0
  1  2  1  0
  2  3  1  0
  2  4  1  0
  4  5  1  0
  5  6  1  0
  6  7  1  0
  7  8  1  6
  7  9  1  0
  9 10  1  0
 10 11  1  0
 11 12  1  0
 12 13  1  1
 12 14  1  0
 14 15  1  0
 15 16  1  0
 16 17  1  6
 16 18  1  0
 18 19  1  0
 19 20  1  0
 20 21  1  0
M  RAD  3   9   2  10   2  14   2
M  END
$$$$
