
     RDKit          3D

 22 22  0  0  0  0  0  0  0  0999 V2000
   -2.4898    1.3387    1.1020 C   0  0  0  0  0  0  0  0  0  0  0  0
   -2.7982    0.0281    1.8189 C   0  0  1  0  0  0  0  0  0  0  0  0
   -4.2903   -0.1821    1.9217 C   0  0  0  0  0  0  0  0  0  0  0  0
   -4.9027   -0.1091    0.5447 C   0  0  1  0  0  0  0  0  0  0  0  0
   -5.7402    1.0054    0.4881 O   0  0  0  0  0  0  0  0  0  0  0  0
   -3.7953    0.0542   -0.4996 C   0  0  2  0  0  0  0  0  0  0  0  0
   -4.3625    0.0174   -1.7538 O   0  0  0  0  0  0  0  0  0  0  0  0
   -2.8687   -1.1256   -0.3432 C   0  0  1  0  0  0  0  0  0  0  0  0
   -1.9077   -1.1087   -1.3729 O   0  0  0  0  0  0  0  0  0  0  0  0
   -2.2069   -1.1092    1.0211 C   0  0  1  0  0  0  0  0  0  0  0  0
   -0.7687   -0.9431    0.9077 N   0  0  0  0  0  0  0  0  0  0  0  0
   -0.4491    0.2733    0.1871 C   0  0  0  0  0  3  0  0  0  0  0  0
    1.0505    0.3614    0.0696 C   0  0  0  0  0  0  0  0  0  0  0  0
    1.5344   -0.3169   -1.1926 C   0  0  0  0  0  3  0  0  0  0  0  0
    1.1857   -1.7123   -1.2293 N   0  0  0  0  0  1  0  0  0  0  0  0
    2.9053   -0.1199   -1.3154 O   0  0  0  0  0  0  0  0  0  0  0  0
    3.2301    1.0208   -0.5725 C   0  0  0  0  0  3  0  0  0  0  0  0
    4.7347    1.0475   -0.3991 C   0  0  2  0  0  0  0  0  0  0  0  0
    5.3554    1.0990   -1.6447 O   0  0  0  0  0  0  0  0  0  0  0  0
    5.2324   -0.2038    0.2968 C   0  0  2  0  0  0  0  0  0  0  0  0
    4.6321   -0.2799    1.5362 O   0  0  0  0  0  0  0  0  0  0  0  0
    6.7198   -0.1714    0.4296 C   0  0  0  0  0  2  0  0  0  0  0  0
  2  1  1  6
  2  3  1  0
  3  4  1  0
  4  5  1  1
  4  6  1  0
  6  7  1  6
  6  8  1  0
  8  9  1  6
  8 10  1  0
 10 11  1  6
 11 12  1  0
 12 13  1  0
 13 14  1  0
 14 15  1  0
 14 16  1  0
 16 17  1  0
 17 18  1  0
 18 19  1  6
 18 20  1  0
 20 21  1  0
 20 22  1  1
 10  2  1  0
M  CHG  1  15   1
M  RAD  5  12   2  14   2  15   2  17   2  22   3
M  END
$$$$
