
     RDKit          3D

 52 54  0  0  0  0  0  0  0  0999 V2000
    4.4084    0.1107   -3.2511 C   0  0  0  0  0  0  0  0  0  0  0  0
    3.1078   -0.3083   -2.6179 C   0  0  0  0  0  0  0  0  0  0  0  0
    2.8532    0.4287   -1.3335 C   0  0  2  0  0  0  0  0  0  0  0  0
    1.9400   -0.2606   -0.4294 C   0  0  0  0  0  0  0  0  0  0  0  0
    1.4449   -1.3593   -0.7601 O   0  0  0  0  0  0  0  0  0  0  0  0
    1.6121    0.3011    0.8115 N   0  0  0  0  0  0  0  0  0  0  0  0
    2.1880    1.5719    1.1886 C   0  0  0  0  0  0  0  0  0  0  0  0
    3.2454    1.2993    2.2368 C   0  0  0  0  0  0  0  0  0  0  0  0
    2.8976    0.0041    2.9386 C   0  0  0  0  0  0  0  0  0  0  0  0
    1.3987   -0.1382    3.1390 C   0  0  0  0  0  0  0  0  0  0  0  0
    0.7169   -0.3079    1.7742 C   0  0  1  0  0  0  0  0  0  0  0  0
   -0.5997    0.3804    1.8115 C   0  0  0  0  0  0  0  0  0  0  0  0
   -0.8174    1.3591    1.0615 O   0  0  0  0  0  0  0  0  0  0  0  0
   -1.5634   -0.0551    2.6600 O   0  0  0  0  0  0  0  0  0  0  0  0
   -2.8837    0.5231    2.7829 C   0  0  2  0  0  0  0  0  0  0  0  0
   -3.6280   -0.1819    3.8684 C   0  0  0  0  0  0  0  0  0  0  0  0
   -4.9626    0.2078    4.2395 C   0  0  0  0  0  0  0  0  0  0  0  0
   -6.0666    0.1795    3.2848 C   0  0  0  0  0  0  0  0  0  0  0  0
   -7.0040   -0.7526    3.5864 C   0  0  0  0  0  0  0  0  0  0  0  0
   -8.2556   -1.1674    2.9726 C   0  0  0  0  0  0  0  0  0  0  0  0
   -8.7781   -1.1538    1.7553 C   0  0  0  0  0  0  0  0  0  0  0  0
  -10.0563   -1.6868    1.6911 O   0  0  0  0  0  0  0  0  0  0  0  0
  -10.2244   -3.1007    1.8228 C   0  0  0  0  0  0  0  0  0  0  0  0
   -8.3005   -0.6929    0.4314 C   0  0  0  0  0  0  0  0  0  0  0  0
   -7.9034    0.7169    0.4790 N   0  0  0  0  0  0  0  0  0  0  0  0
   -6.7806    1.3265    1.1065 C   0  0  0  0  0  0  0  0  0  0  0  0
   -6.0485    1.1420    2.1902 C   0  0  0  0  0  0  0  0  0  0  0  0
   -3.5308    0.1015    1.4695 C   0  0  0  0  0  0  0  0  0  0  0  0
   -3.3182    0.7002    0.3496 C   0  0  0  0  0  0  0  0  0  0  0  0
   -3.5337    1.4737   -0.6829 C   0  0  0  0  0  0  0  0  0  0  0  0
   -3.8414    2.2098   -1.7095 C   0  0  0  0  0  0  0  0  0  0  0  0
   -4.4083    1.6681   -2.9701 C   0  0  0  0  0  0  0  0  0  0  0  0
   -4.5399    0.2997   -2.8570 O   0  0  0  0  0  0  0  0  0  0  0  0
   -5.4026    0.0040   -1.7809 C   0  0  0  0  0  0  0  0  0  0  0  0
   -5.5810   -1.4765   -1.6138 C   0  0  0  0  0  0  0  0  0  0  0  0
   -3.6177    3.6462   -1.6182 C   0  0  0  0  0  0  0  0  0  0  0  0
   -4.5482    4.4016   -2.0264 O   0  0  0  0  0  0  0  0  0  0  0  0
    2.5437    1.8942   -1.5277 C   0  0  0  0  0  0  0  0  0  0  0  0
    3.7256    2.6586   -0.9789 C   0  0  0  0  0  0  0  0  0  0  0  0
    5.0358    2.3816   -0.8990 C   0  0  0  0  0  0  0  0  0  0  0  0
    5.8729    3.4326   -0.2703 C   0  0  0  0  0  0  0  0  0  0  0  0
    5.7702    1.1779   -1.3477 C   0  0  0  0  0  0  0  0  0  0  0  0
    5.5219    0.2707   -2.2854 C   0  0  0  0  0  0  0  0  0  0  0  0
    6.5144   -0.6921   -2.3409 O   0  0  0  0  0  0  0  0  0  0  0  0
    7.1654   -0.9423   -3.5260 C   0  0  0  0  0  0  0  0  0  0  0  0
    8.3261   -1.5969   -3.5281 C   0  0  0  0  0  0  0  0  0  0  0  0
    9.0434   -1.8762   -4.7966 C   0  0  0  0  0  0  0  0  0  0  0  0
    8.9031   -2.0462   -2.2757 C   0  0  0  0  0  0  0  0  0  0  0  0
   10.0432   -2.6908   -2.2612 C   0  0  0  0  0  0  0  0  0  0  0  0
   10.5744   -3.1184   -0.9656 C   0  0  0  0  0  0  0  0  0  0  0  0
   10.5733   -2.2679    0.0155 C   0  0  0  0  0  0  0  0  0  0  0  0
   10.7683   -1.4022    0.9864 C   0  0  0  0  0  0  0  0  0  0  0  0
  1  2  1  0
  2  3  1  0
  3  4  1  6
  4  5  2  0
  4  6  1  0
  6  7  1  0
  7  8  1  0
  8  9  1  0
  9 10  1  0
 10 11  1  0
 11 12  1  1
 12 13  2  0
 12 14  1  0
 14 15  1  0
 15 16  1  1
 16 17  1  0
 17 18  1  0
 18 19  2  3
 19 20  1  0
 20 21  2  3
 21 22  1  0
 22 23  1  0
 21 24  1  0
 24 25  1  0
 25 26  1  0
 26 27  2  3
 15 28  1  0
 28 29  2  0
 29 30  2  0
 30 31  2  0
 31 32  1  0
 32 33  1  0
 33 34  1  0
 34 35  1  0
 31 36  1  0
 36 37  2  0
  3 38  1  0
 38 39  1  0
 39 40  2  3
 40 41  1  0
 40 42  1  0
 42 43  2  3
 43 44  1  0
 44 45  1  0
 45 46  2  3
 46 47  1  0
 46 48  1  0
 48 49  2  3
 49 50  1  0
 50 51  2  0
 51 52  2  0
 43  1  1  0
 11  6  1  0
 27 18  1  0
M  END
$$$$
