
     RDKit          3D

  3  3  0  0  0  0  0  0  0  0999 V2000
    0.6244   -0.2130   -0.5218 C   0  0  0  0  0  0  0  0  0  0  0  0
   -0.0131    0.5085    0.3911 C   0  0  0  0  0  3  0  0  0  0  0  0
   -0.6113   -0.2955   -0.3350 N   0  0  0  0  0  4  0  0  0  0  0  0
  1  2  1  0
  2  3  2  0
  1  3  2  0
M  CHG  1   3   1
M  RAD  1   2   2
M  END
$$$$
