
     RDKit          3D

  9  9  0  0  0  0  0  0  0  0999 V2000
   -1.8043    0.1957   -0.6945 C   0  0  0  0  0  0  0  0  0  0  0  0
   -1.8032   -0.8770    0.2176 O   0  0  0  0  0  0  0  0  0  0  0  0
   -0.6521   -1.6379    0.1151 C   0  0  0  0  0  3  0  0  0  0  0  0
    0.3947   -0.8946    0.6774 O   0  0  0  0  0  0  0  0  0  0  0  0
    0.6276    0.2333   -0.0679 C   0  0  2  0  0  0  0  0  0  0  0  0
    2.0849    0.6476   -0.0952 C   0  0  0  0  0  0  0  0  0  0  0  0
    2.8444   -0.3908   -0.6467 O   0  0  0  0  0  0  0  0  0  0  0  0
   -0.1859    1.3722    0.4589 C   0  0  0  0  0  3  0  0  0  0  0  0
   -1.5061    1.3516    0.0354 O   0  0  0  0  0  0  0  0  0  0  0  0
  1  2  1  0
  2  3  1  0
  3  4  1  0
  4  5  1  0
  5  6  1  1
  6  7  1  0
  5  8  1  0
  8  9  1  0
  9  1  1  0
M  RAD  2   3   2   8   2
M  END
$$$$
