
     RDKit          3D

 24 25  0  0  0  0  0  0  0  0999 V2000
    2.2299    1.5128    1.2487 C   0  0  0  0  0  0  0  0  0  0  0  0
    1.8126    0.9894   -0.1060 C   0  0  1  0  0  0  0  0  0  0  0  0
    2.8995    1.2040   -1.1371 C   0  0  0  0  0  0  0  0  0  0  0  0
    4.1073    0.4164   -0.6825 C   0  0  2  0  0  0  0  0  0  0  0  0
    5.1936    0.5901   -1.5499 O   0  0  0  0  0  0  0  0  0  0  0  0
    3.7935   -1.0529   -0.5853 C   0  0  2  0  0  0  0  0  0  0  0  0
    3.4578   -1.5958   -1.8195 O   0  0  0  0  0  0  0  0  0  0  0  0
    2.6661   -1.3071    0.3760 C   0  0  1  0  0  0  0  0  0  0  0  0
    3.0593   -0.9047    1.6425 O   0  0  0  0  0  0  0  0  0  0  0  0
    1.4833   -0.4808   -0.0426 C   0  0  1  0  0  0  0  0  0  0  0  0
    0.3625   -0.6285    0.8759 N   0  0  0  0  0  0  0  0  0  0  0  0
   -0.7370    0.1034    0.3163 C   0  0  1  0  0  0  0  0  0  0  0  0
   -1.3255   -0.5577   -0.9166 C   0  0  0  0  0  0  0  0  0  0  0  0
   -2.7498   -0.0218   -1.0019 C   0  0  0  0  0  0  0  0  0  0  0  0
   -2.7176    1.3277   -0.6986 O   0  0  0  0  0  0  0  0  0  0  0  0
   -3.2731   -0.2067   -2.3940 C   0  0  0  0  0  0  0  0  0  0  0  0
   -2.3821    0.4573   -3.2531 O   0  0  0  0  0  0  0  0  0  0  0  0
   -3.5459   -0.7307    0.0530 C   0  0  1  0  0  0  0  0  0  0  0  0
   -3.5323   -2.1210   -0.1338 O   0  0  0  0  0  0  0  0  0  0  0  0
   -2.9392   -0.4634    1.3972 C   0  0  2  0  0  0  0  0  0  0  0  0
   -3.9322    0.1596    2.1710 O   0  0  0  0  0  0  0  0  0  0  0  0
   -1.7897    0.4945    1.3024 C   0  0  1  0  0  0  0  0  0  0  0  0
   -1.2387    0.7677    2.5373 O   0  0  0  0  0  0  0  0  0  0  0  0
   -0.9024    2.0482    2.5348 O   0  0  0  0  0  0  0  0  0  0  0  0
  2  1  1  1
  2  3  1  0
  3  4  1  0
  4  5  1  6
  4  6  1  0
  6  7  1  6
  6  8  1  0
  8  9  1  1
  8 10  1  0
 10 11  1  1
 12 11  1  1
 12 13  1  0
 13 14  1  0
 14 15  1  0
 14 16  1  0
 16 17  1  0
 14 18  1  0
 18 19  1  6
 18 20  1  0
 20 21  1  1
 20 22  1  0
 22 23  1  1
 23 24  1  0
 10  2  1  0
 22 12  1  0
M  END
$$$$
