
     RDKit          3D

 11 10  0  0  0  0  0  0  0  0999 V2000
    3.9772   -0.1134    0.2144 O   0  0  0  0  0  0  0  0  0  0  0  0
    3.2864   -0.4461    1.3807 C   0  0  0  0  0  0  0  0  0  0  0  0
    1.7925   -0.2820    1.1550 C   0  0  0  0  0  3  0  0  0  0  0  0
    1.5632    0.1672   -0.1859 N   0  0  0  0  0  0  0  0  0  0  0  0
    0.2189    0.4845   -0.5191 C   0  0  2  0  0  0  0  0  0  0  0  0
   -0.3742    1.6354    0.2632 C   0  0  0  0  0  0  0  0  0  0  0  0
   -0.6478   -0.6082   -0.2745 O   0  0  0  0  0  0  0  0  0  0  0  0
   -1.8942   -0.1517   -0.6642 C   0  0  1  0  0  0  0  0  0  0  0  0
   -1.8362    0.1845   -2.0126 O   0  0  0  0  0  0  0  0  0  0  0  0
   -3.0139   -1.0843   -0.3700 C   0  0  0  0  0  3  0  0  0  0  0  0
   -3.0719   -1.2523    1.0132 O   0  0  0  0  0  0  0  0  0  0  0  0
  1  2  1  0
  2  3  1  0
  3  4  1  0
  4  5  1  0
  5  6  1  1
  5  7  1  0
  7  8  1  0
  8  9  1  6
  8 10  1  0
 10 11  1  0
M  RAD  2   3   2  10   2
M  END
$$$$
