
     RDKit          3D

 21 21  0  0  0  0  0  0  0  0999 V2000
   -2.1090   -1.8983   -3.0395 C   0  0  0  0  0  0  0  0  0  0  0  0
   -1.3123   -1.3415   -2.0130 O   0  0  0  0  0  0  0  0  0  0  0  0
   -1.7469   -1.5705   -0.6982 C   0  0  0  0  0  0  0  0  0  0  0  0
   -2.8957   -2.3036   -0.4256 C   0  0  0  0  0  0  0  0  0  0  0  0
   -3.2969   -2.5120    0.8791 C   0  0  0  0  0  0  0  0  0  0  0  0
   -2.5210   -1.9703    1.8838 C   0  0  0  0  0  0  0  0  0  0  0  0
   -1.3709   -1.2368    1.6041 C   0  0  0  0  0  0  0  0  0  0  0  0
   -0.9670   -1.0266    0.2923 C   0  0  0  0  0  0  0  0  0  0  0  0
    0.2520   -0.2492   -0.0458 C   0  0  0  0  0  0  0  0  0  0  0  0
   -0.0427    1.1368   -0.5446 C   0  0  0  0  0  0  0  0  0  0  0  0
    1.3185    1.7832   -0.8398 C   0  0  0  0  0  0  0  0  0  0  0  0
    2.0601    1.7834    0.4477 C   0  0  0  0  0  0  0  0  0  0  0  0
    3.2198    1.1549    0.6136 C   0  0  0  0  0  0  0  0  0  0  0  0
    3.8212    0.4106   -0.5304 C   0  0  0  0  0  0  0  0  0  0  0  0
    3.9814   -1.0662   -0.1794 C   0  0  0  0  0  0  0  0  0  0  0  0
    4.5871   -1.7850   -1.3550 C   0  0  0  0  0  0  0  0  0  0  0  0
    3.6755   -1.6438   -2.5697 C   0  0  0  0  0  0  0  0  0  0  0  0
   -0.6277    1.9101    0.5849 C   0  0  0  0  0  0  0  0  0  0  0  0
   -1.0648    3.1006    0.4937 N   0  0  0  0  0  0  0  0  0  0  0  0
   -1.5930    3.6574    1.7327 C   0  0  0  0  0  0  0  0  0  0  0  0
   -3.3676    3.6666    1.5465 Cl  0  0  0  0  0  0  0  0  0  0  0  0
  1  2  1  0
  2  3  1  0
  3  4  2  0
  4  5  1  0
  5  6  2  0
  6  7  1  0
  7  8  2  0
  8  9  1  0
  9 10  1  0
 10 11  1  0
 11 12  1  0
 12 13  2  3
 13 14  1  0
 14 15  1  0
 15 16  1  0
 16 17  1  0
 10 18  1  0
 18 19  2  3
 19 20  1  0
 20 21  1  0
  8  3  1  0
M  END
$$$$
