
     RDKit          3D

 30 31  0  0  0  0  0  0  0  0999 V2000
   -3.8158   -2.8612   -0.2755 C   0  0  0  0  0  0  0  0  0  0  0  0
   -4.9321   -1.8487   -0.4814 C   0  0  0  0  0  0  0  0  0  0  0  0
   -6.2870   -2.5003   -0.5398 C   0  0  0  0  0  0  0  0  0  0  0  0
   -4.8677   -0.7280    0.5193 C   0  0  0  0  0  0  0  0  0  0  0  0
   -5.0970    0.5775   -0.2085 C   0  0  0  0  0  0  0  0  0  0  0  0
   -4.6597    1.7740    0.5981 C   0  0  0  0  0  0  0  0  0  0  0  0
   -3.4443    2.4558    0.0141 C   0  0  1  0  0  0  0  0  0  0  0  0
   -3.7887    3.8769   -0.3552 C   0  0  0  0  0  0  0  0  0  0  0  0
   -2.3186    2.4726    1.0193 C   0  0  0  0  0  3  0  0  0  0  0  0
   -1.0775    2.9892    0.2829 C   0  0  0  0  0  0  0  0  0  0  0  0
   -0.2428    1.7766   -0.0674 C   0  0  0  0  0  0  0  0  0  0  0  0
    1.1718    1.9200    0.4663 C   0  0  1  0  0  0  0  0  0  0  0  0
    1.3509    3.3732    0.8798 C   0  0  0  0  0  0  0  0  0  0  0  0
    1.4180    0.9831    1.6251 C   0  0  0  0  0  0  0  0  0  0  0  0
    2.0670   -0.3000    1.2203 C   0  0  0  0  0  0  0  0  0  0  0  0
    1.4285   -0.9405    0.0125 C   0  0  1  0  0  0  0  0  0  0  0  0
    2.3779   -1.0146   -1.1567 C   0  0  0  0  0  3  0  0  0  0  0  0
    3.6074   -1.8070   -0.8722 C   0  0  0  0  0  0  0  0  0  0  0  0
    4.4348   -1.2810    0.2538 C   0  0  0  0  0  0  0  0  0  0  0  0
    5.5464   -2.1375    0.3875 O   0  0  0  0  0  0  0  0  0  0  0  0
    4.9946    0.0741   -0.1217 C   0  0  0  0  0  0  0  0  0  0  0  0
    5.8445    0.6406    1.0054 C   0  0  0  0  0  0  0  0  0  0  0  0
    6.3749    1.9897    0.5753 C   0  0  0  0  0  0  0  0  0  0  0  0
    7.1608    1.8968   -0.5780 O   0  0  0  0  0  0  0  0  0  0  0  0
    0.9501   -2.1900    0.3864 O   0  0  0  0  0  0  0  0  0  0  0  0
   -0.1310   -2.6114   -0.3518 C   0  0  0  0  0  0  0  0  0  0  0  0
   -1.4468   -2.4865    0.4252 C   0  0  0  0  0  0  0  0  0  0  0  0
   -2.5061   -2.1028   -0.5242 C   0  0  2  0  0  0  0  0  0  0  0  0
   -2.5170   -0.8281    0.1524 C   0  0  0  0  0  0  0  0  0  0  0  0
   -1.5954   -1.1623    0.9782 C   0  0  0  0  0  0  0  0  0  0  0  0
  1  2  1  0
  2  3  1  0
  2  4  1  0
  4  5  1  0
  5  6  1  0
  6  7  1  0
  7  8  1  1
  7  9  1  0
  9 10  1  0
 10 11  1  0
 11 12  1  0
 12 13  1  1
 12 14  1  0
 14 15  1  0
 15 16  1  0
 16 17  1  6
 17 18  1  0
 18 19  1  0
 19 20  1  0
 19 21  1  0
 21 22  1  0
 22 23  1  0
 23 24  1  0
 16 25  1  0
 25 26  1  0
 26 27  1  0
 27 28  1  0
 28 29  1  0
 29 30  2  0
 28  1  1  1
 30 27  1  0
M  RAD  2   9   2  17   2
M  END
$$$$
