
     RDKit          3D

 38 40  0  0  0  0  0  0  0  0999 V2000
    4.3893    1.0281   -2.4158 C   0  0  0  0  0  3  0  0  0  0  0  0
    5.4355    2.1386   -2.3743 C   0  0  0  0  0  0  0  0  0  0  0  0
    6.7572    1.5127   -2.7649 C   0  0  0  0  0  0  0  0  0  0  0  0
    5.0630    3.3092   -3.2265 C   0  0  0  0  0  0  0  0  0  0  0  0
    4.7997   -0.0007   -1.4633 C   0  0  0  0  0  0  0  0  0  0  0  0
    3.9987   -0.9360   -0.9359 C   0  0  0  0  0  0  0  0  0  0  0  0
    2.5781   -1.0360   -1.2629 C   0  0  0  0  0  3  0  0  0  0  0  0
    1.7531    0.1832   -1.0401 C   0  0  0  0  0  0  0  0  0  0  0  0
    2.4344    1.3217   -0.3621 C   0  0  0  0  0  0  0  0  0  0  0  0
    1.4371    0.7190   -2.4540 C   0  0  0  0  0  0  0  0  0  0  0  0
    4.6206   -1.8549   -0.0413 C   0  0  0  0  0  0  0  0  0  0  0  0
    4.3154   -2.5598    0.9413 C   0  0  0  0  0  0  0  0  0  0  0  0
    3.0250   -2.7004    1.6028 C   0  0  0  0  0  0  0  0  0  0  0  0
    2.1250   -1.5495    1.4229 C   0  0  0  0  0  0  0  0  0  0  0  0
    2.2897   -0.3401    1.8924 C   0  0  0  0  0  0  0  0  0  0  0  0
    1.2870    0.7519    1.6294 C   0  0  0  0  0  0  0  0  0  0  0  0
    0.1360    0.0700    0.8561 C   0  0  0  0  0  0  0  0  0  0  0  0
    0.4121   -0.1739   -0.3957 C   0  0  0  0  0  0  0  0  0  0  0  0
   -0.4701   -0.8227   -1.4153 C   0  0  1  0  0  0  0  0  0  0  0  0
   -0.2974   -2.1660   -1.5595 O   0  0  0  0  0  0  0  0  0  0  0  0
   -0.5119   -2.9448   -0.4549 C   0  0  0  0  0  0  0  0  0  0  0  0
   -1.8352   -0.3181   -1.3946 C   0  0  0  0  0  0  0  0  0  0  0  0
   -2.8271   -1.1402   -0.9529 C   0  0  0  0  0  0  0  0  0  0  0  0
   -4.2206   -0.5396   -0.9516 C   0  0  1  0  0  0  0  0  0  0  0  0
   -5.1559   -1.5861   -0.3718 C   0  0  0  0  0  0  0  0  0  0  0  0
   -5.1340   -2.8435   -1.2073 C   0  0  0  0  0  0  0  0  0  0  0  0
   -6.5381   -0.9613   -0.3196 C   0  0  0  0  0  0  0  0  0  0  0  0
   -4.1498    0.5589    0.0855 C   0  0  0  0  0  0  0  0  0  0  0  0
   -3.2736    0.5320    1.0795 C   0  0  0  0  0  0  0  0  0  0  0  0
   -2.3033   -0.6099    1.2163 C   0  0  0  0  0  3  0  0  0  0  0  0
   -1.0273   -0.1699    1.6955 C   0  0  0  0  0  0  0  0  0  0  0  0
   -0.6755   -0.9689    2.9479 C   0  0  0  0  0  0  0  0  0  0  0  0
   -3.4914    1.7390    1.8861 C   0  0  1  0  0  0  0  0  0  0  0  0
   -2.3301    2.6334    2.0505 C   0  0  0  0  0  0  0  0  0  0  0  0
   -1.7220    3.2022    0.8208 C   0  0  0  0  0  0  0  0  0  0  0  0
   -1.3307    2.3221    3.0904 C   0  0  0  0  0  0  0  0  0  0  0  0
   -4.5969    2.4512    1.2320 C   0  0  0  0  0  0  0  0  0  0  0  0
   -4.9659    1.7493    0.1861 C   0  0  0  0  0  0  0  0  0  0  0  0
  1  2  1  0
  2  3  1  0
  2  4  1  0
  1  5  1  0
  5  6  2  3
  6  7  1  0
  7  8  1  0
  8  9  1  0
  8 10  1  0
  6 11  1  0
 11 12  2  3
 12 13  1  0
 13 14  1  0
 14 15  2  3
 15 16  1  0
 16 17  1  0
 17 18  2  3
 18 19  1  0
 19 20  1  1
 20 21  1  0
 19 22  1  0
 22 23  2  3
 23 24  1  0
 24 25  1  1
 25 26  1  0
 25 27  1  0
 24 28  1  0
 28 29  2  0
 29 30  1  0
 30 31  1  0
 31 32  1  0
 29 33  1  0
 33 34  1  6
 34 35  1  0
 34 36  1  0
 33 37  1  0
 37 38  2  0
 18  8  1  0
 31 17  1  0
 38 28  1  0
M  RAD  3   1   2   7   2  30   2
M  END
$$$$
