
     RDKit          3D

 69 69  0  0  0  0  0  0  0  0999 V2000
   -4.0352    0.4119    0.8678 C   0  0  0  0  0  0  0  0  0  0  0  0
   -4.4132    1.5246    1.4433 C   0  0  0  0  0  0  0  0  0  0  0  0
   -5.6759    1.5086    2.2349 C   0  0  0  0  0  0  0  0  0  0  0  0
   -3.6748    2.8092    1.3664 C   0  0  0  0  0  0  0  0  0  0  0  0
   -4.4458    3.9132    0.7241 C   0  0  0  0  0  0  0  0  0  0  0  0
   -5.9454    3.7465    0.9111 C   0  0  0  0  0  0  0  0  0  0  0  0
   -6.6766    4.7351    0.0209 C   0  0  1  0  0  0  0  0  0  0  0  0
   -5.9123    4.9874   -1.2592 C   0  0  0  0  0  0  0  0  0  0  0  0
   -8.0538    4.1730   -0.2550 C   0  0  2  0  0  0  0  0  0  0  0  0
   -8.5911    3.4323    0.9644 C   0  0  0  0  0  2  0  0  0  0  0  0
   -8.0452    3.2233   -1.4336 C   0  0  0  0  0  3  0  0  0  0  0  0
   -7.4588    1.8768   -1.0732 C   0  0  0  0  0  3  0  0  0  0  0  0
   -8.5105    0.8590   -0.7518 C   0  0  0  0  0  0  0  0  0  0  0  0
   -7.9067   -0.5211   -0.9845 C   0  0  2  0  0  0  0  0  0  0  0  0
   -7.4117   -1.0866    0.3525 C   0  0  0  0  0  0  0  0  0  0  0  0
   -6.8295   -2.4522    0.0738 C   0  0  0  0  0  3  0  0  0  0  0  0
   -7.9799   -3.3011   -0.4838 C   0  0  0  0  0  3  0  0  0  0  0  0
   -9.2037   -2.9000    0.3821 C   0  0  2  0  0  0  0  0  0  0  0  0
   -8.8113   -3.2572    1.8410 C   0  0  0  0  0  0  0  0  0  0  0  0
  -10.3654   -3.7403   -0.0014 C   0  0  0  0  0  0  0  0  0  0  0  0
  -11.6132   -3.4814    0.6584 C   0  0  0  0  0  0  0  0  0  0  0  0
  -11.8464   -3.5475    2.0872 C   0  0  0  0  0  3  0  0  0  0  0  0
  -11.1758   -2.4461    2.8507 C   0  0  0  0  0  3  0  0  0  0  0  0
  -11.9290   -1.1389    2.7313 C   0  0  0  0  0  0  0  0  0  0  0  0
   -6.6508   -0.4101   -1.8413 C   0  0  2  0  0  0  0  0  0  0  0  0
   -6.3363   -1.6456   -2.6089 C   0  0  0  0  0  0  0  0  0  0  0  0
   -7.4615   -1.9744   -3.5495 C   0  0  0  0  0  0  0  0  0  0  0  0
   -7.7515   -0.9466   -4.5816 C   0  0  0  0  0  0  0  0  0  0  0  0
   -8.1361    0.3993   -4.0580 C   0  0  0  0  0  2  0  0  0  0  0  0
   -5.4857    0.0375   -0.9670 C   0  0  0  0  0  0  0  0  0  0  0  0
   -4.4368    0.6192   -1.8538 C   0  0  0  0  0  0  0  0  0  0  0  0
   -3.0301    0.3542   -1.4239 C   0  0  2  0  0  0  0  0  0  0  0  0
   -2.3838   -0.7711   -2.2016 C   0  0  0  0  0  0  0  0  0  0  0  0
   -2.8229    0.2330    0.0490 C   0  0  0  0  0  0  0  0  0  0  0  0
   -2.3186   -1.1922    0.3129 C   0  0  0  0  0  2  0  0  0  0  0  0
   -1.7068    1.1702    0.4503 C   0  0  0  0  0  0  0  0  0  0  0  0
   -1.2885    0.9665    1.8875 C   0  0  0  0  0  0  0  0  0  0  0  0
   -0.7885   -0.4347    2.1512 C   0  0  0  0  0  0  0  0  0  0  0  0
    0.4115   -0.6729    1.2585 C   0  0  0  0  0  3  0  0  0  0  0  0
    1.5185    0.3203    1.5518 C   0  0  0  0  0  0  0  0  0  0  0  0
    1.0529    1.7437    1.3231 C   0  0  0  0  0  2  0  0  0  0  0  0
    2.0603    0.1375    2.9557 C   0  0  0  0  0  0  0  0  0  0  0  0
    3.1529    1.1602    3.1738 C   0  0  1  0  0  0  0  0  0  0  0  0
    3.7415    1.0339    4.5675 C   0  0  0  0  0  2  0  0  0  0  0  0
    4.2697    1.0663    2.1864 C   0  0  0  0  0  0  0  0  0  0  0  0
    4.9860   -0.2422    2.1767 C   0  0  0  0  0  0  0  0  0  0  0  0
    4.1336   -1.4305    1.8521 C   0  0  0  0  0  0  0  0  0  0  0  0
    6.2146   -0.1463    1.3095 C   0  0  0  0  0  0  0  0  0  0  0  0
    7.1673    0.9129    1.8207 C   0  0  0  0  0  2  0  0  0  0  0  0
    5.8172    0.2631   -0.0967 C   0  0  0  0  0  2  0  0  0  0  0  0
    6.9224   -1.4701    1.3301 C   0  0  0  0  0  0  0  0  0  0  0  0
    8.1572   -1.3704    0.4599 C   0  0  0  0  0  0  0  0  0  0  0  0
    9.0971   -0.3142    0.9554 C   0  0  0  0  0  3  0  0  0  0  0  0
   10.3139   -0.2538    0.0464 C   0  0  0  0  0  0  0  0  0  0  0  0
    9.7299   -0.1771   -1.3819 C   0  0  1  0  0  0  0  0  0  0  0  0
   10.9560   -0.0048   -2.3422 C   0  0  0  0  0  0  0  0  0  0  0  0
   11.6253    1.2804   -1.9058 C   0  0  0  0  0  3  0  0  0  0  0  0
   10.6321    2.4222   -2.0480 C   0  0  0  0  0  0  0  0  0  0  0  0
   11.2420    3.7352   -1.6256 C   0  0  0  0  0  0  0  0  0  0  0  0
   12.4549    4.0133   -2.5150 C   0  0  0  0  0  3  0  0  0  0  0  0
   13.0994    5.3255   -2.1234 C   0  0  0  0  0  2  0  0  0  0  0  0
    9.2313   -1.6298   -1.7135 C   0  0  0  0  0  0  0  0  0  0  0  0
   10.3807   -2.5700   -1.7564 C   0  0  0  0  0  0  0  0  0  0  0  0
    9.7546   -3.9532   -2.0851 C   0  0  0  0  0  2  0  0  0  0  0  0
   11.2605   -2.2941   -2.9897 C   0  0  0  0  0  0  0  0  0  0  0  0
   11.2553   -2.7625   -0.6136 C   0  0  0  0  0  0  0  0  0  0  0  0
   10.6870   -3.2963    0.6527 C   0  0  0  0  0  2  0  0  0  0  0  0
   12.4668   -3.5823   -0.9858 C   0  0  0  0  0  0  0  0  0  0  0  0
   13.3166   -2.9779   -2.0523 C   0  0  0  0  0  2  0  0  0  0  0  0
  1  2  2  3
  2  3  1  0
  2  4  1  0
  4  5  1  0
  5  6  1  0
  6  7  1  0
  7  8  1  6
  7  9  1  0
  9 10  1  1
  9 11  1  0
 11 12  1  0
 12 13  1  0
 13 14  1  0
 14 15  1  1
 15 16  1  0
 16 17  1  0
 17 18  1  0
 18 19  1  1
 18 20  1  0
 20 21  1  0
 21 22  1  0
 22 23  1  0
 23 24  1  0
 14 25  1  0
 25 26  1  1
 26 27  1  0
 27 28  1  0
 28 29  1  0
 25 30  1  0
 30 31  1  0
 31 32  1  0
 32 33  1  6
 32 34  1  0
 34 35  1  0
 34 36  1  0
 36 37  1  0
 37 38  1  0
 38 39  1  0
 39 40  1  0
 40 41  1  0
 40 42  1  0
 42 43  1  0
 43 44  1  1
 43 45  1  0
 45 46  1  0
 46 47  1  0
 46 48  1  0
 48 49  1  0
 48 50  1  0
 48 51  1  0
 51 52  1  0
 52 53  1  0
 53 54  1  0
 55 54  1  1
 55 56  1  0
 56 57  1  0
 57 58  1  0
 58 59  1  0
 59 60  1  0
 60 61  1  0
 55 62  1  0
 62 63  1  0
 63 64  1  0
 63 65  1  0
 63 66  1  0
 66 67  1  0
 66 68  1  0
 68 69  1  0
 34  1  1  0
M  RAD  8  10   3  11   2  12   2  16   2  17   2  22   2  23   2  29   3
M  RAD  8  35   3  39   2  41   3  44   3  49   3  50   3  53   2  57   2
M  RAD  5  60   2  61   3  64   3  67   3  69   3
M  END
$$$$
