
     RDKit          3D

 16 15  0  0  0  0  0  0  0  0999 V2000
   -4.3382    0.4965    1.0599 C   0  0  0  0  0  0  0  0  0  0  0  0
   -3.4135    1.0836    0.0403 C   0  0  0  0  0  0  0  0  0  0  0  0
   -3.2470    2.5740    0.1709 C   0  0  0  0  0  0  0  0  0  0  0  0
   -3.7000    0.6403   -1.3588 C   0  0  0  0  0  0  0  0  0  0  0  0
   -2.6830    1.3181   -2.2694 C   0  0  0  0  0  0  0  0  0  0  0  0
   -1.3324    0.8880   -1.8323 C   0  0  0  0  0  0  0  0  0  0  0  0
   -0.1675    1.4269   -2.5814 C   0  0  0  0  0  0  0  0  0  0  0  0
   -1.1300    0.0634   -0.8261 C   0  0  0  0  0  0  0  0  0  0  0  0
    0.2397   -0.3178   -0.4509 C   0  0  0  0  0  0  0  0  0  0  0  0
    0.5601    0.0836    0.9818 C   0  0  0  0  0  0  0  0  0  0  0  0
    1.9294   -0.3023    1.3435 C   0  0  0  0  0  0  0  0  0  0  0  0
    2.7507   -0.9180    0.5074 C   0  0  0  0  0  0  0  0  0  0  0  0
    2.3713   -1.2824   -0.8847 C   0  0  0  0  0  0  0  0  0  0  0  0
    4.0317   -1.2497    0.9265 O   0  0  0  0  0  0  0  0  0  0  0  0
    4.4579   -0.9485    2.1941 C   0  0  0  0  0  0  0  0  0  0  0  0
    3.6708   -0.3645    2.9790 O   0  0  0  0  0  0  0  0  0  0  0  0
  1  2  1  0
  2  3  1  0
  2  4  1  0
  4  5  1  0
  5  6  1  0
  6  7  1  0
  6  8  2  3
  8  9  1  0
  9 10  1  0
 10 11  1  0
 11 12  2  3
 12 13  1  0
 12 14  1  0
 14 15  1  0
 15 16  2  0
M  END
$$$$
