
     RDKit          3D

 21 23  0  0  0  0  0  0  0  0999 V2000
    4.0150    0.2774   -2.1255 C   0  0  0  0  0  0  0  0  0  0  0  0
    4.0932   -1.0456   -1.5672 O   0  0  0  0  0  0  0  0  0  0  0  0
    2.8163   -0.8113   -1.0625 C   0  0  0  0  0  0  0  0  0  0  0  0
    1.5992   -1.1269   -0.7335 C   0  0  0  0  0  0  0  0  0  0  0  0
    0.8225   -2.3020   -0.7989 C   0  0  0  0  0  0  0  0  0  0  0  0
   -0.0943   -2.5784    0.1408 C   0  0  0  0  0  0  0  0  0  0  0  0
   -0.2665   -1.6292    1.2355 C   0  0  0  0  0  0  0  0  0  0  0  0
   -1.4937   -0.7386    1.1089 C   0  0  2  0  0  0  0  0  0  0  0  0
   -1.1447    0.6460    1.3623 N   0  0  0  0  0  0  0  0  0  0  0  0
   -1.1558    1.7043    0.4528 C   0  0  0  0  0  0  0  0  0  0  0  0
   -0.1219    1.9281   -0.3271 C   0  0  0  0  0  0  0  0  0  0  0  0
    1.0732    1.1352   -0.3216 C   0  0  0  0  0  0  0  0  0  0  0  0
    2.1650    1.5511   -0.9441 C   0  0  0  0  0  0  0  0  0  0  0  0
    3.3083    0.5995   -0.8353 C   0  0  0  0  0  0  0  0  0  0  0  0
    4.2063    0.8029    0.3259 C   0  0  0  0  0  0  0  0  0  0  0  0
   -2.4909   -1.2448    2.0465 N   0  0  0  0  0  0  0  0  0  0  0  0
   -3.7078   -1.6845    1.3488 C   0  0  0  0  0  0  0  0  0  0  0  0
   -4.2828   -0.4737    0.7833 O   0  0  0  0  0  0  0  0  0  0  0  0
   -3.4203    0.5390    0.5396 C   0  0  0  0  0  0  0  0  0  0  0  0
   -3.5788    1.8279    0.6903 C   0  0  0  0  0  0  0  0  0  0  0  0
   -2.3414    2.6236    0.2984 C   0  0  0  0  0  0  0  0  0  0  0  0
  1  2  1  0
  2  3  1  0
  3  4  2  3
  4  5  1  0
  5  6  2  3
  6  7  1  0
  8  7  1  1
  8  9  1  0
  9 10  1  0
 10 11  2  3
 11 12  1  0
 12 13  2  3
 13 14  1  0
 14 15  1  0
  8 16  1  0
 16 17  1  0
 17 18  1  0
 18 19  1  0
 19 20  2  3
 20 21  1  0
 14  1  1  0
 14  3  1  0
 21 10  1  0
M  END
$$$$
