
     RDKit          3D

 28 29  0  0  0  0  0  0  0  0999 V2000
    0.4479   -1.4193    0.1512 C   0  0  0  0  0  0  0  0  0  0  0  0
    0.1792   -2.0958   -1.0305 O   0  0  0  0  0  0  0  0  0  0  0  0
   -1.1856   -2.1481   -1.3055 C   0  0  0  0  0  3  0  0  0  0  0  0
   -1.8991   -1.1558   -0.6488 O   0  0  0  0  0  0  0  0  0  0  0  0
   -2.0614   -1.4417    0.7050 C   0  0  2  0  0  0  0  0  0  0  0  0
   -2.3073   -2.9155    0.9387 C   0  0  0  0  0  0  0  0  0  0  0  0
   -3.5854   -3.2655    0.1731 C   0  0  0  0  0  2  0  0  0  0  0  0
   -3.1595   -0.5933    1.3217 C   0  0  2  0  0  0  0  0  0  0  0  0
   -4.3213   -0.4228    0.3643 C   0  0  0  0  0  3  0  0  0  0  0  0
   -3.8662    0.2447   -0.8967 C   0  0  0  0  0  3  0  0  0  0  0  0
   -4.9686    0.9900   -1.5828 C   0  0  2  0  0  0  0  0  0  0  0  0
   -5.6355    2.0867   -0.8518 C   0  0  0  0  0  0  0  0  0  0  0  0
   -6.2491    0.7968   -0.9640 O   0  0  0  0  0  0  0  0  0  0  0  0
   -2.5962    0.6663    1.5487 O   0  0  0  0  0  0  0  0  0  0  0  0
   -1.7194    0.9156    0.4952 C   0  0  0  0  0  3  0  0  0  0  0  0
   -0.4721    1.6394    0.9230 C   0  0  2  0  0  0  0  0  0  0  0  0
   -0.2526    2.8054   -0.0375 C   0  0  0  0  0  0  0  0  0  0  0  0
    0.6345    0.8217    1.0157 O   0  0  0  0  0  0  0  0  0  0  0  0
    0.8429    0.0078   -0.0618 C   0  0  0  0  0  0  0  0  0  0  0  0
    2.6184    0.0277   -0.4368 S   0  0  0  0  0  0  0  0  0  0  0  0
    2.9972   -0.7567   -1.9965 C   0  0  0  0  0  3  0  0  0  0  0  0
    4.4805   -0.7236   -2.2520 C   0  0  0  0  0  3  0  0  0  0  0  0
    4.9766    0.6827   -2.0380 C   0  0  0  0  0  0  0  0  0  0  0  0
    4.7620    1.1609   -0.6375 C   0  0  2  0  0  0  0  0  0  0  0  0
    5.2691    2.5720   -0.4572 C   0  0  0  0  0  2  0  0  0  0  0  0
    5.4198    0.3062    0.2578 O   0  0  0  0  0  0  0  0  0  0  0  0
    5.2673    0.6815    1.4942 O   0  0  0  0  0  0  0  0  0  0  0  0
    6.3841    0.5326    2.1955 F   0  0  0  0  0  0  0  0  0  0  0  0
  1  2  1  0
  2  3  1  0
  3  4  1  0
  4  5  1  0
  5  6  1  6
  6  7  1  0
  5  8  1  0
  8  9  1  6
  9 10  1  0
 11 10  1  1
 11 12  1  0
 11 13  1  0
  8 14  1  0
 14 15  1  0
 15 16  1  0
 16 17  1  6
 16 18  1  0
 18 19  1  0
 19 20  1  0
 20 21  1  0
 21 22  1  0
 22 23  1  0
 23 24  1  0
 24 25  1  6
 24 26  1  0
 26 27  1  0
 27 28  1  0
 19  1  1  0
 13 12  1  0
M  RAD  8   3   2   7   3   9   2  10   2  15   2  21   2  22   2  25   3
M  END
$$$$
