
     RDKit          3D

 11 10  0  0  0  0  0  0  0  0999 V2000
   -3.0520   -0.7444   -0.2013 O   0  0  0  0  0  0  0  0  0  0  0  0
   -2.4230    0.3366   -0.1508 C   0  0  0  0  0  0  0  0  0  0  0  0
   -2.5703    1.1421    0.9517 O   0  0  0  0  0  0  0  0  0  0  0  0
   -1.5445    0.7047   -1.2830 C   0  0  0  0  0  0  0  0  0  0  0  0
   -0.2457   -0.1106   -1.2596 C   0  0  0  0  0  0  0  0  0  0  0  0
    0.5063    0.1430    0.0210 C   0  0  0  0  0  0  0  0  0  0  0  0
    1.7536   -0.5844    0.1396 C   0  0  0  0  0  0  0  0  0  0  0  0
    1.8849   -1.8670    0.4596 C   0  0  0  0  0  0  0  0  0  0  0  0
    3.2353   -2.4761    0.5429 C   0  0  0  0  0  0  0  0  0  0  0  0
    0.6926    1.5445    0.2026 N   0  0  0  0  0  3  0  0  0  0  0  0
    1.7627    1.9116    0.5773 O   0  0  0  0  0  0  0  0  0  0  0  0
  1  2  2  0
  2  3  1  0
  2  4  1  0
  4  5  1  0
  5  6  1  0
  6  7  1  0
  7  8  2  3
  8  9  1  0
  6 10  1  0
 10 11  2  0
M  CHG  1  10   1
M  RAD  1  10   2
M  END
$$$$
