
     RDKit          3D

 24 24  0  0  0  0  0  0  0  0999 V2000
   -2.6465    0.7677    1.8488 C   0  0  0  0  0  0  0  0  0  0  0  0
   -3.2466    1.8703    1.0121 C   0  0  0  0  0  0  0  0  0  0  0  0
   -4.6965    2.0418    1.3572 C   0  0  0  0  0  0  0  0  0  0  0  0
   -3.0364    1.6760   -0.4004 N   0  0  0  0  0  0  0  0  0  0  0  0
   -2.7063    0.5123   -0.9032 C   0  0  0  0  0  0  0  0  0  0  0  0
   -2.5331    0.4539   -2.2700 O   0  0  0  0  0  0  0  0  0  0  0  0
   -1.9435    1.4965   -2.9864 C   0  0  0  0  0  0  0  0  0  0  0  0
   -0.5304    1.8134   -2.5846 C   0  0  0  0  0  0  0  0  0  0  0  0
   -0.4159    2.2219   -1.1417 C   0  0  0  0  0  0  0  0  0  0  0  0
    0.9805    2.5616   -0.6470 C   0  0  0  0  0  0  0  0  0  0  0  0
   -0.0301    3.6938   -0.9397 C   0  0  0  0  0  0  0  0  0  0  0  0
   -2.5304   -0.6773   -0.0407 C   0  0  0  0  0  0  0  0  0  0  0  0
   -1.1361   -1.1942   -0.1457 C   0  0  0  0  0  0  0  0  0  0  0  0
   -0.8753   -2.3772    0.6807 C   0  0  0  0  0  0  0  0  0  0  0  0
    0.0501   -2.3414    1.6128 C   0  0  0  0  0  0  0  0  0  0  0  0
    0.3241   -3.4989    2.4407 C   0  0  0  0  0  0  0  0  0  0  0  0
    0.5288   -4.4182    3.1134 N   0  0  0  0  0  0  0  0  0  0  0  0
    0.8504   -1.1376    1.8647 C   0  0  0  0  0  0  0  0  0  0  0  0
    2.1315   -1.2243    1.6032 C   0  0  0  0  0  0  0  0  0  0  0  0
    3.3977   -1.4183    1.5030 N   0  0  0  0  0  0  0  0  0  0  0  0
    3.8386   -1.7945    0.2470 O   0  0  0  0  0  0  0  0  0  0  0  0
    4.4300   -0.8021   -0.5270 N   0  0  0  0  0  0  0  0  0  0  0  0
    4.9969    0.3398    0.0097 N   0  0  0  0  0  0  0  0  0  0  0  0
    4.7988    1.4349   -0.5644 O   0  0  0  0  0  0  0  0  0  0  0  0
  1  2  1  0
  2  3  1  0
  2  4  1  0
  4  5  2  3
  5  6  1  0
  6  7  1  0
  7  8  1  0
  8  9  1  0
  9 10  1  0
 10 11  1  0
  5 12  1  0
 12 13  1  0
 13 14  1  0
 14 15  2  3
 15 16  1  0
 16 17  3  0
 15 18  1  0
 18 19  2  0
 19 20  2  0
 20 21  1  0
 21 22  1  0
 22 23  1  0
 23 24  2  0
 11  9  1  0
M  END
$$$$
