
     RDKit          3D

 34 36  0  0  0  0  0  0  0  0999 V2000
    2.2264   -6.8049    0.1907 C   0  0  0  0  0  0  0  0  0  0  0  0
    2.4234   -5.6108    0.8866 O   0  0  0  0  0  0  0  0  0  0  0  0
    1.4444   -4.6941    1.1542 C   0  0  0  0  0  0  0  0  0  0  0  0
    1.5692   -3.3929    0.9528 C   0  0  0  0  0  0  0  0  0  0  0  0
    0.5046   -2.4731    1.2536 C   0  0  0  0  0  0  0  0  0  0  0  0
    0.6711   -1.1862    1.0380 C   0  0  0  0  0  0  0  0  0  0  0  0
    1.8784   -0.6768    0.5136 C   0  0  0  0  0  0  0  0  0  0  0  0
    2.8143   -1.4745   -0.2901 C   0  0  0  0  0  0  0  0  0  0  0  0
    2.8222   -0.6025   -1.5871 C   0  0  0  0  0  0  0  0  0  0  0  0
    1.3675   -0.5921   -1.9712 C   0  0  0  0  0  0  0  0  0  0  0  0
    0.4844   -0.5779   -0.9522 C   0  0  0  0  0  0  0  0  0  0  0  0
   -0.8627   -0.5770   -1.0221 C   0  0  0  0  0  0  0  0  0  0  0  0
   -1.4164   -0.5908   -2.2702 C   0  0  0  0  0  0  0  0  0  0  0  0
   -2.8279   -0.5896   -2.3836 O   0  0  0  0  0  0  0  0  0  0  0  0
   -0.5944   -0.6052   -3.3861 C   0  0  0  0  0  0  0  0  0  0  0  0
    0.7997   -0.6057   -3.2028 C   0  0  0  0  0  0  0  0  0  0  0  0
    3.0162    0.6694   -0.9098 O   0  0  0  0  0  0  0  0  0  0  0  0
    2.1462    0.6769    0.2040 C   0  0  0  0  0  0  0  0  0  0  0  0
    1.7475    1.8342    0.7432 C   0  0  0  0  0  0  0  0  0  0  0  0
    2.1528    3.1538    0.2564 C   0  0  0  0  0  0  0  0  0  0  0  0
    2.8818    3.9031    1.3555 C   0  0  0  0  0  0  0  0  0  0  0  0
    3.3281    5.2660    0.9226 C   0  0  0  0  0  0  0  0  0  0  0  0
    4.2744    5.1629   -0.2600 C   0  0  0  0  0  0  0  0  0  0  0  0
   -0.4720   -0.3001    1.3695 C   0  0  0  0  0  0  0  0  0  0  0  0
   -1.5893   -0.5771    0.3056 C   0  0  0  0  0  0  0  0  0  0  0  0
   -2.4222    0.5744    0.3392 N   0  0  0  0  0  0  0  0  0  0  0  0
   -3.0871    0.8370    1.5619 C   0  0  1  0  0  0  0  0  0  0  0  0
   -2.0817    1.1031    2.6619 C   0  0  0  0  0  0  0  0  0  0  0  0
   -4.0919    1.9188    1.5427 C   0  0  0  0  0  3  0  0  0  0  0  0
   -3.5707    3.2942    1.2955 C   0  0  0  0  0  3  0  0  0  0  0  0
   -4.5964    4.0248    0.4639 C   0  0  0  0  0  0  0  0  0  0  0  0
   -5.4947    3.3464   -0.2599 C   0  0  0  0  0  0  0  0  0  0  0  0
   -2.1639   -1.8031    0.6449 N   0  0  0  0  0  0  0  0  0  0  0  0
   -3.2812   -2.0304    1.1819 C   0  0  0  0  0  0  0  0  0  0  0  0
  1  2  1  0
  2  3  1  0
  3  4  2  3
  4  5  1  0
  5  6  2  3
  6  7  1  0
  7  8  1  0
  8  9  1  0
  9 10  1  0
 10 11  2  0
 11 12  1  0
 12 13  2  0
 13 14  1  0
 13 15  1  0
 15 16  2  0
  9 17  1  0
 17 18  1  0
 18 19  2  3
 19 20  1  0
 20 21  1  0
 21 22  1  0
 22 23  1  0
  6 24  1  0
 24 25  1  0
 25 26  1  0
 26 27  1  0
 27 28  1  1
 27 29  1  0
 29 30  1  0
 30 31  1  0
 31 32  2  0
 25 33  1  0
 33 34  2  0
 18  7  1  0
 16 10  1  0
 25 12  1  0
M  RAD  2  29   2  30   2
M  END
$$$$
