
     RDKit          3D

 25 25  0  0  0  0  0  0  0  0999 V2000
   -3.7786   -1.5671   -1.6068 C   0  0  0  0  0  0  0  0  0  0  0  0
   -3.4176   -0.0932   -1.6639 C   0  0  1  0  0  0  0  0  0  0  0  0
   -4.6851    0.6847   -1.4012 C   0  0  0  0  0  0  0  0  0  0  0  0
   -4.4228    1.9852   -0.6954 C   0  0  2  0  0  0  0  0  0  0  0  0
   -3.8600    2.9505   -1.5294 O   0  0  0  0  0  0  0  0  0  0  0  0
   -3.6614    1.8308    0.5919 C   0  0  2  0  0  0  0  0  0  0  0  0
   -2.5187    2.6574    0.5434 O   0  0  0  0  0  0  0  0  0  0  0  0
   -3.1214    0.4004    0.6967 C   0  0  1  0  0  0  0  0  0  0  0  0
   -4.2500   -0.4389    0.6517 O   0  0  0  0  0  0  0  0  0  0  0  0
   -2.3713    0.1539   -0.6064 C   0  0  1  0  0  0  0  0  0  0  0  0
   -1.4315   -0.9255   -0.4736 N   0  0  0  0  0  0  0  0  0  0  0  0
   -0.6942   -1.0991   -1.6801 C   0  0  0  0  0  3  0  0  0  0  0  0
    0.7169   -1.5532   -1.5240 C   0  0  0  0  0  0  0  0  0  0  0  0
    1.1459   -1.7455   -0.0947 C   0  0  2  0  0  0  0  0  0  0  0  0
    0.3603   -2.7043    0.5579 O   0  0  0  0  0  0  0  0  0  0  0  0
    0.9788   -0.4287    0.6349 C   0  0  0  0  0  0  0  0  0  0  0  0
    1.3865   -0.5252    1.9654 O   0  0  0  0  0  0  0  0  0  0  0  0
    2.5743   -2.2327   -0.0006 C   0  0  1  0  0  0  0  0  0  0  0  0
    2.6217   -3.4722   -0.6426 O   0  0  0  0  0  0  0  0  0  0  0  0
    3.4750   -1.3682   -0.6057 O   0  0  0  0  0  0  0  0  0  0  0  0
    3.4908   -0.1205   -0.0360 C   0  0  0  0  0  0  0  0  0  0  0  0
    4.4620    0.7014   -0.7474 N   0  0  0  0  0  0  0  0  0  0  0  0
    4.4916    2.0430   -0.1495 C   0  0  0  0  0  3  0  0  0  0  0  0
    5.7044    2.1957    0.7296 C   0  0  0  0  0  0  0  0  0  0  0  0
    6.8045    2.6714    0.0504 F   0  0  0  0  0  0  0  0  0  0  0  0
  2  1  1  1
  2  3  1  0
  3  4  1  0
  4  5  1  6
  4  6  1  0
  6  7  1  6
  6  8  1  0
  8  9  1  6
  8 10  1  0
 10 11  1  1
 11 12  1  0
 12 13  1  0
 13 14  1  0
 14 15  1  1
 14 16  1  0
 16 17  1  0
 14 18  1  0
 18 19  1  6
 18 20  1  0
 20 21  1  0
 21 22  1  0
 22 23  1  0
 23 24  1  0
 24 25  1  0
 10  2  1  0
M  RAD  2  12   2  23   2
M  END
$$$$
