
     RDKit          3D

 25 26  0  0  0  0  0  0  0  0999 V2000
   -7.2031   -1.0683    0.8232 C   0  0  0  0  0  0  0  0  0  0  0  0
   -5.9949   -0.3872    1.0726 O   0  0  0  0  0  0  0  0  0  0  0  0
   -4.9814   -1.0031    1.7326 C   0  0  0  0  0  0  0  0  0  0  0  0
   -3.7276   -0.9725    1.5284 C   0  0  0  0  0  0  0  0  0  0  0  0
   -2.9226   -0.2962    0.5531 C   0  0  0  0  0  0  0  0  0  0  0  0
   -1.5870   -0.2665    0.3284 C   0  0  0  0  0  0  0  0  0  0  0  0
   -0.4481   -0.9167    0.9989 C   0  0  0  0  0  0  0  0  0  0  0  0
    0.7659   -0.6798    0.5270 C   0  0  0  0  0  0  0  0  0  0  0  0
    1.9361   -1.2823    1.1322 C   0  0  0  0  0  0  0  0  0  0  0  0
    1.8131   -2.0395    2.1156 O   0  0  0  0  0  0  0  0  0  0  0  0
    3.1804   -1.0126    0.6141 O   0  0  0  0  0  0  0  0  0  0  0  0
    4.3565   -1.5452    1.1294 C   0  0  0  0  0  0  0  0  0  0  0  0
    5.5321   -1.2837    0.6314 C   0  0  0  0  0  0  0  0  0  0  0  0
    5.7248   -0.4077   -0.5132 C   0  0  0  0  0  0  0  0  0  0  0  0
    4.6891    0.2088   -1.1551 C   0  0  0  0  0  0  0  0  0  0  0  0
    4.9530    1.0209   -2.2281 C   0  0  0  0  0  0  0  0  0  0  0  0
    6.2275    1.2293   -2.6721 C   0  0  0  0  0  0  0  0  0  0  0  0
    7.2961    0.6137   -2.0359 C   0  0  0  0  0  0  0  0  0  0  0  0
    7.0120   -0.2011   -0.9567 C   0  0  0  0  0  0  0  0  0  0  0  0
   -1.8367    0.6258   -0.7760 C   0  0  0  0  0  0  0  0  0  0  0  0
   -3.1599    0.6033   -0.5606 C   0  0  0  0  0  0  0  0  0  0  0  0
   -4.2815    1.2815   -1.2804 C   0  0  0  0  0  0  0  0  0  0  0  0
   -4.9554    2.2603   -0.3467 C   0  0  0  0  0  0  0  0  0  0  0  0
   -6.0612    2.9085   -1.1054 C   0  0  0  0  0  0  0  0  0  0  0  0
   -6.3271    2.6103   -2.3735 C   0  0  0  0  0  0  0  0  0  0  0  0
  1  2  1  0
  2  3  1  0
  3  4  2  3
  4  5  1  0
  5  6  2  0
  6  7  1  0
  7  8  2  3
  8  9  1  0
  9 10  2  0
  9 11  1  0
 11 12  1  0
 12 13  2  3
 13 14  1  0
 14 15  2  0
 15 16  1  0
 16 17  2  0
 17 18  1  0
 18 19  2  0
  6 20  1  0
 20 21  2  0
 21 22  1  0
 22 23  1  0
 23 24  1  0
 24 25  2  0
 21  5  1  0
 19 14  1  0
M  END
$$$$
