
     RDKit          3D

 31 30  0  0  0  0  0  0  0  0999 V2000
   -8.0777    2.2753   -1.3736 C   0  0  0  0  0  0  0  0  0  0  0  0
   -7.3037    2.0175   -0.1670 C   0  0  0  0  0  0  0  0  0  0  0  0
   -6.6596    2.9171    0.3819 O   0  0  0  0  0  0  0  0  0  0  0  0
   -7.2850    0.7273    0.3077 O   0  0  0  0  0  0  0  0  0  0  0  0
   -6.3742    0.3753    1.3713 C   0  0  0  0  0  2  0  0  0  0  0  0
   -6.0137   -1.1246    1.1408 C   0  0  0  0  0  0  0  0  0  0  0  0
   -5.4994   -1.2398   -0.2675 C   0  0  0  0  0  3  0  0  0  0  0  0
   -6.3555   -0.8913   -1.3370 C   0  0  0  0  0  0  0  0  0  0  0  0
   -6.5828   -1.3152   -2.4181 O   0  0  0  0  0  0  0  0  0  0  0  0
   -4.4436   -2.2728   -0.4088 C   0  0  0  0  0  0  0  0  0  0  0  0
   -3.3330   -1.6797   -1.3230 C   0  0  0  0  0  3  0  0  0  0  0  0
   -3.0427   -0.3565   -0.6849 C   0  0  0  0  0  0  0  0  0  0  0  0
   -1.8601    0.3204   -1.2166 C   0  0  0  0  0  0  0  0  0  0  0  0
   -0.5929   -0.5632   -0.9507 C   0  0  2  0  0  0  0  0  0  0  0  0
   -0.6912   -0.9726    0.5157 C   0  0  0  0  0  0  0  0  0  0  0  0
    0.3850    0.5175   -0.9184 O   0  0  0  0  0  0  0  0  0  0  0  0
    0.8896    0.5694    0.2547 C   0  0  0  0  0  3  0  0  0  0  0  0
    2.0423    0.0959    0.8587 C   0  0  1  0  0  0  0  0  0  0  0  0
    2.2998   -1.2786    0.9858 O   0  0  0  0  0  0  0  0  0  0  0  0
    3.3043    0.7487    0.2795 C   0  0  0  0  0  0  0  0  0  0  0  0
    3.6339    0.1990   -0.9583 O   0  0  0  0  0  0  0  0  0  0  0  0
    3.7868   -1.2189   -0.8503 C   0  0  0  0  0  0  0  0  0  0  0  0
    4.8568   -1.5074    0.2461 C   0  0  0  0  0  3  0  0  0  0  0  0
    4.9735   -3.0138    0.3943 C   0  0  0  0  0  0  0  0  0  0  0  0
    6.0848   -0.8451   -0.2925 C   0  0  0  0  0  0  0  0  0  0  0  0
    5.7440    0.5868   -0.7136 C   0  0  0  0  0  0  0  0  0  0  0  0
    7.0422    1.2929   -1.2464 C   0  0  0  0  0  0  0  0  0  0  0  0
    7.8871    1.2535    0.0287 C   0  0  0  0  0  0  0  0  0  0  0  0
    8.2399   -0.1495    0.4374 C   0  0  0  0  0  1  0  0  0  0  0  0
    6.8158    1.7270    1.0792 C   0  0  0  0  0  3  0  0  0  0  0  0
    6.1294    2.8056    0.5989 O   0  0  0  0  0  0  0  0  0  0  0  0
  1  2  1  0
  2  3  2  0
  2  4  1  0
  4  5  1  0
  5  6  1  0
  6  7  1  0
  7  8  1  0
  8  9  2  0
  7 10  1  0
 10 11  1  0
 11 12  1  0
 12 13  1  0
 13 14  1  0
 14 15  1  1
 14 16  1  0
 16 17  1  0
 17 18  1  0
 18 19  1  6
 18 20  1  0
 20 21  1  0
 21 22  1  0
 22 23  1  0
 23 24  1  0
 23 25  1  0
 25 26  1  0
 26 27  1  0
 27 28  1  0
 28 29  1  0
 28 30  1  0
 30 31  1  0
M  RAD  7   5   3   7   2  11   2  17   2  23   2  29   2  30   2
M  END
$$$$
