
     RDKit          3D

 80 80  0  0  0  0  0  0  0  0999 V2000
   -6.8248    0.1954   -0.8230 O   0  0  0  0  0  0  0  0  0  0  0  0
   -6.1306   -0.1873    0.2145 O   0  0  0  0  0  0  0  0  0  0  0  0
   -5.5435    0.9017    0.8501 C   0  0  0  0  0  3  0  0  0  0  0  0
   -6.3831    2.0035    0.6822 O   0  0  0  0  0  0  0  0  0  0  0  0
   -7.5625    1.8926    1.3901 C   0  0  2  0  0  0  0  0  0  0  0  0
   -7.4865    0.6255    2.2324 C   0  0  0  0  0  0  0  0  0  0  0  0
   -8.6667    0.4765    2.9676 O   0  0  0  0  0  0  0  0  0  0  0  0
   -8.7507    1.7734    0.4731 C   0  0  0  0  0  3  0  0  0  0  0  0
   -9.3750    3.1075    0.1754 C   0  0  0  0  0  3  0  0  0  0  0  0
  -10.5223    3.3744    1.1267 C   0  0  0  0  0  3  0  0  0  0  0  0
  -11.8130    3.6799    0.3690 C   0  0  2  0  0  0  0  0  0  0  0  0
  -11.4832    4.6016   -0.6115 O   0  0  0  0  0  0  0  0  0  0  0  0
  -12.8114    4.2107    1.3574 C   0  0  0  0  0  3  0  0  0  0  0  0
  -14.0458    3.6117    1.2901 O   0  0  0  0  0  0  0  0  0  0  0  0
  -14.2197    2.5900    2.2229 C   0  0  0  0  0  0  0  0  0  0  0  0
  -14.8620    1.3678    1.5565 C   0  0  0  0  0  0  0  0  0  0  0  0
  -13.8421    0.6343    1.0035 O   0  0  0  0  0  0  0  0  0  0  0  0
  -14.2389   -0.3322    0.1073 C   0  0  2  0  0  0  0  0  0  0  0  0
  -14.3250   -1.5405    0.8015 O   0  0  0  0  0  0  0  0  0  0  0  0
  -13.1193   -1.9071    1.3564 C   0  0  2  0  0  0  0  0  0  0  0  0
  -12.6187   -0.9948    2.2581 O   0  0  0  0  0  0  0  0  0  0  0  0
  -12.1209   -2.2820    0.2966 C   0  0  0  0  0  3  0  0  0  0  0  0
  -10.9340   -2.6399    0.9126 O   0  0  0  0  0  0  0  0  0  0  0  0
   -9.8788   -2.1777    0.3175 O   0  0  0  0  0  0  0  0  0  0  0  0
   -9.4257   -3.1104   -0.5930 C   0  0  0  0  0  3  0  0  0  0  0  0
   -9.2040   -4.4436    0.0888 C   0  0  2  0  0  0  0  0  0  0  0  0
   -8.2714   -4.3396    1.0947 O   0  0  0  0  0  0  0  0  0  0  0  0
   -8.9292   -5.5526   -0.8725 C   0  0  0  0  0  2  0  0  0  0  0  0
  -13.3085   -0.5277   -1.0455 C   0  0  0  0  0  3  0  0  0  0  0  0
  -13.7227    0.2239   -2.2889 C   0  0  0  0  0  3  0  0  0  0  0  0
  -12.7552    1.1443   -2.6902 O   0  0  0  0  0  0  0  0  0  0  0  0
  -11.9653    0.6121   -3.7230 C   0  0  0  0  0  3  0  0  0  0  0  0
  -10.9988   -0.4180   -3.1850 C   0  0  0  0  0  3  0  0  0  0  0  0
   -9.6049   -0.2459   -3.7624 C   0  0  0  0  0  3  0  0  0  0  0  0
   -8.7691    0.0639   -2.6812 O   0  0  0  0  0  0  0  0  0  0  0  0
   -7.5323   -0.3067   -2.9196 O   0  0  0  0  0  0  0  0  0  0  0  0
   -7.0165   -0.8401   -1.7419 C   0  0  1  0  0  0  0  0  0  0  0  0
   -5.6512   -1.4561   -1.9848 C   0  0  0  0  0  3  0  0  0  0  0  0
   -5.1996   -1.9231   -0.7448 O   0  0  0  0  0  0  0  0  0  0  0  0
   -3.8602   -2.3046   -0.8038 C   0  0  0  0  0  3  0  0  0  0  0  0
   -3.0114   -1.0912   -1.0458 C   0  0  0  0  0  3  0  0  0  0  0  0
   -2.4971   -0.5341    0.1139 O   0  0  0  0  0  0  0  0  0  0  0  0
   -1.2720   -1.1235    0.4391 C   0  0  0  0  0  3  0  0  0  0  0  0
   -1.4146   -2.5012    0.5897 O   0  0  0  0  0  0  0  0  0  0  0  0
   -0.4850   -3.0147    1.3438 O   0  0  0  0  0  0  0  0  0  0  0  0
    0.7371   -2.3462    1.2018 C   0  0  0  0  0  3  0  0  0  0  0  0
    1.0321   -2.2467   -0.1473 O   0  0  0  0  0  0  0  0  0  0  0  0
    2.0111   -1.3122   -0.4281 C   0  0  0  0  0  3  0  0  0  0  0  0
    2.6702   -0.7997    0.8477 C   0  0  0  0  0  3  0  0  0  0  0  0
    3.9829   -0.4212    0.6036 O   0  0  0  0  0  0  0  0  0  0  0  0
    4.8415   -1.4917    0.4894 C   0  0  0  0  0  3  0  0  0  0  0  0
    6.0777   -1.1579   -0.3201 C   0  0  2  0  0  0  0  0  0  0  0  0
    5.7001   -0.7786   -1.5874 O   0  0  0  0  0  0  0  0  0  0  0  0
    7.0538   -2.2963   -0.3017 C   0  0  0  0  0  3  0  0  0  0  0  0
    8.1614   -1.9469   -1.0568 O   0  0  0  0  0  0  0  0  0  0  0  0
    9.3337   -1.8390   -0.2806 C   0  0  0  0  0  3  0  0  0  0  0  0
    9.7084   -0.3733   -0.1658 C   0  0  2  0  0  0  0  0  0  0  0  0
    8.6288    0.4351    0.4972 C   0  0  0  0  0  3  0  0  0  0  0  0
    8.4225   -0.0785    1.7842 O   0  0  0  0  0  0  0  0  0  0  0  0
    9.3027   -1.1447    2.0311 C   0  0  0  0  0  2  0  0  0  0  0  0
    9.9789    0.1706   -1.4131 O   0  0  0  0  0  0  0  0  0  0  0  0
   10.3180    1.5060   -1.3116 C   0  0  0  0  0  3  0  0  0  0  0  0
   11.5690    1.8485   -0.0648 S   0  0  0  0  0  0  0  0  0  0  0  0
   12.1059    0.3608    0.7819 C   0  0  0  0  0  0  0  0  0  0  0  0
   12.8361   -0.5719   -0.1536 C   0  0  0  0  0  3  0  0  0  0  0  0
   12.8852   -0.0182   -1.4144 O   0  0  0  0  0  0  0  0  0  0  0  0
   13.5177    1.2058   -1.3818 C   0  0  0  0  0  0  0  0  0  0  0  0
   14.9325    1.1583   -0.8838 C   0  0  0  0  0  3  0  0  0  0  0  0
   15.3112   -0.2626   -0.5320 C   0  0  0  0  0  3  0  0  0  0  0  0
   16.5724   -0.2843    0.0975 O   0  0  0  0  0  0  0  0  0  0  0  0
   17.3813    0.7044   -0.4733 C   0  0  0  0  0  3  0  0  0  0  0  0
   17.2188    1.9003    0.1950 O   0  0  0  0  0  0  0  0  0  0  0  0
   17.1612    2.9759   -0.6792 C   0  0  0  0  0  3  0  0  0  0  0  0
   18.2279    3.8333   -0.4093 O   0  0  0  0  0  0  0  0  0  0  0  0
   19.3898    3.0567   -0.2468 C   0  0  0  0  0  3  0  0  0  0  0  0
   19.3314    2.2045    1.3546 S   0  0  0  0  0  0  0  0  0  0  0  0
   20.7664    1.2765    1.5020 O   0  0  0  0  0  0  0  0  0  0  0  0
   21.1172    0.7603    0.2770 C   0  0  0  0  0  3  0  0  0  0  0  0
   21.6301    1.8809   -0.5947 C   0  0  0  0  0  3  0  0  0  0  0  0
   22.5386    2.7964    0.2100 C   0  0  0  0  0  2  0  0  0  0  0  0
  1  2  1  0
  2  3  1  0
  3  4  1  0
  4  5  1  0
  5  6  1  1
  6  7  1  0
  5  8  1  0
  8  9  1  0
  9 10  1  0
 10 11  1  0
 11 12  1  6
 11 13  1  0
 13 14  1  0
 14 15  1  0
 15 16  1  0
 16 17  1  0
 17 18  1  0
 18 19  1  1
 19 20  1  0
 20 21  1  6
 20 22  1  0
 22 23  1  0
 23 24  1  0
 24 25  1  0
 25 26  1  0
 26 27  1  0
 26 28  1  6
 18 29  1  0
 29 30  1  0
 30 31  1  0
 31 32  1  0
 32 33  1  0
 33 34  1  0
 34 35  1  0
 35 36  1  0
 36 37  1  0
 37 38  1  6
 38 39  1  0
 39 40  1  0
 40 41  1  0
 41 42  1  0
 42 43  1  0
 43 44  1  0
 44 45  1  0
 45 46  1  0
 46 47  1  0
 47 48  1  0
 48 49  1  0
 49 50  1  0
 50 51  1  0
 51 52  1  0
 52 53  1  6
 52 54  1  0
 54 55  1  0
 55 56  1  0
 57 56  1  6
 57 58  1  0
 58 59  1  0
 59 60  1  0
 57 61  1  0
 61 62  1  0
 62 63  1  0
 63 64  1  0
 64 65  1  0
 65 66  1  0
 66 67  1  0
 67 68  1  0
 68 69  1  0
 69 70  1  0
 70 71  1  0
 71 72  1  0
 72 73  1  0
 73 74  1  0
 74 75  1  0
 75 76  1  0
 76 77  1  0
 77 78  1  0
 78 79  1  0
 79 80  1  0
 37  1  1  0
M  RAD  8   3   2   8   2   9   2  10   2  13   2  22   2  25   2  28   3
M  RAD  8  29   2  30   2  32   2  33   2  34   2  38   2  40   2  41   2
M  RAD  8  43   2  46   2  48   2  49   2  51   2  54   2  56   2  58   2
M  RAD  8  60   3  62   2  65   2  68   2  69   2  71   2  73   2  75   2
M  RAD  3  78   2  79   2  80   3
M  END
$$$$
