
     RDKit          3D

  4  3  0  0  0  0  0  0  0  0999 V2000
    2.0033   -0.4173   -0.0013 Br  0  0  0  0  0  0  0  0  0  0  0  0
    0.4426    0.6444   -0.0517 N   0  0  0  0  0  0  0  0  0  0  0  0
   -0.6593    0.1286    0.1067 N   0  0  0  0  0  4  0  0  0  0  0  0
   -1.7867   -0.3557   -0.0536 N   0  0  0  0  0  2  0  0  0  0  0  0
  1  2  1  0
  2  3  2  0
  3  4  2  0
M  CHG  2   3   1   4  -1
M  END
$$$$
