
     RDKit          3D

 31 30  0  0  0  0  0  0  0  0999 V2000
   -5.6107   -4.4741    1.4195 C   0  0  0  0  0  0  0  0  0  0  0  0
   -5.9020   -3.1309    0.7795 C   0  0  0  0  0  0  0  0  0  0  0  0
   -6.0526   -3.2240   -0.7127 C   0  0  0  0  0  0  0  0  0  0  0  0
   -4.9534   -2.0611    1.2131 C   0  0  0  0  0  0  0  0  0  0  0  0
   -3.5164   -2.3777    0.8716 C   0  0  0  0  0  0  0  0  0  0  0  0
   -2.6353   -1.3187    1.3071 N   0  0  0  0  0  3  0  0  0  0  0  0
   -2.8494   -0.1116    0.5360 C   0  0  0  0  0  0  0  0  0  0  0  0
   -4.2012    0.5010    0.8261 C   0  0  0  0  0  0  0  0  0  0  0  0
   -4.4278    1.7515    0.0270 C   0  0  0  0  0  3  0  0  0  0  0  0
   -4.3814    1.5016   -1.4397 C   0  0  0  0  0  0  0  0  0  0  0  0
   -5.3126    2.0208   -2.2162 C   0  0  0  0  0  0  0  0  0  0  0  0
   -6.4124    2.8544   -1.6521 C   0  0  0  0  0  0  0  0  0  0  0  0
   -6.3070    4.2136   -2.3051 C   0  0  0  0  0  0  0  0  0  0  0  0
   -7.5955    5.3522   -1.7103 S   0  0  0  0  0  0  0  0  0  0  0  0
   -1.2410   -1.6783    1.1811 C   0  0  0  0  0  0  0  0  0  0  0  0
   -0.8810   -2.8622    2.0543 C   0  0  0  0  0  0  0  0  0  0  0  0
   -0.9323   -2.0045   -0.2146 C   0  0  0  0  0  0  0  0  0  0  0  0
   -1.8103   -1.9653   -1.2106 C   0  0  0  0  0  0  0  0  0  0  0  0
    0.7443   -2.4937   -0.6287 S   0  0  0  0  0  0  0  0  0  0  0  0
    1.8178   -2.4963    0.8119 C   0  0  0  0  0  0  0  0  0  0  0  0
    2.0226   -1.1150    1.3479 C   0  0  0  0  0  0  0  0  0  0  0  0
    2.6580   -0.1730    0.3480 C   0  0  0  0  0  0  0  0  0  0  0  0
    3.9811   -0.6430   -0.0868 C   0  0  0  0  0  0  0  0  0  0  0  0
    5.0672    0.0820    0.1084 C   0  0  0  0  0  0  0  0  0  0  0  0
    6.3889   -0.3256   -0.2954 C   0  0  0  0  0  0  0  0  0  0  0  0
    7.4148    0.4655   -0.0571 C   0  0  0  0  0  0  0  0  0  0  0  0
    7.2235    1.7519    0.6129 C   0  0  0  0  0  0  0  0  0  0  0  0
    8.2661    2.5483    0.8515 C   0  0  0  0  0  0  0  0  0  0  0  0
    9.6418    2.1600    0.4496 C   0  0  0  0  0  0  0  0  0  0  0  0
   10.2148    3.1413   -0.4918 C   0  0  0  0  0  0  0  0  0  0  0  0
    9.5817    4.1110   -0.8388 O   0  0  0  0  0  0  0  0  0  0  0  0
  1  2  1  0
  2  3  1  0
  2  4  1  0
  4  5  1  0
  5  6  1  0
  6  7  1  0
  7  8  1  0
  8  9  1  0
  9 10  1  0
 10 11  2  3
 11 12  1  0
 12 13  1  0
 13 14  1  0
  6 15  1  0
 15 16  1  0
 15 17  1  0
 17 18  2  0
 17 19  1  0
 19 20  1  0
 20 21  1  0
 21 22  1  0
 22 23  1  0
 23 24  2  3
 24 25  1  0
 25 26  2  3
 26 27  1  0
 27 28  2  3
 28 29  1  0
 29 30  1  0
 30 31  2  0
M  CHG  1   6   1
M  RAD  2   6   2   9   2
M  END
$$$$
