
     RDKit          3D

 18 19  0  0  0  0  0  0  0  0999 V2000
   -2.0633    0.5748    0.9611 C   0  0  0  0  0  0  0  0  0  0  0  0
   -2.6079    1.8451    0.4214 C   0  0  0  0  0  2  0  0  0  0  0  0
   -3.5093    1.5089   -0.7552 C   0  0  0  0  0  0  0  0  0  0  0  0
   -4.5326    0.5379   -0.2225 C   0  0  2  0  0  0  0  0  0  0  0  0
   -5.1882    1.1906    0.8408 O   0  0  0  0  0  0  0  0  0  0  0  0
   -4.0281   -0.6353    0.2244 O   0  0  0  0  0  0  0  0  0  0  0  0
   -2.7719   -0.6525    0.7160 C   0  0  0  0  0  0  0  0  0  0  0  0
   -2.5381   -1.7017    1.6407 O   0  0  0  0  0  0  0  0  0  0  0  0
   -1.5719   -0.3824   -0.1478 C   0  0  2  0  0  0  0  0  0  0  0  0
   -0.2460   -1.0125    0.2019 C   0  0  0  0  0  0  0  0  0  0  0  0
    0.8223    0.0619    0.3960 C   0  0  0  0  0  0  0  0  0  0  0  0
    2.1260   -0.6237    0.7435 C   0  0  0  0  0  0  0  0  0  0  0  0
    2.4584   -1.5412   -0.4363 C   0  0  0  0  0  3  0  0  0  0  0  0
    2.5823   -0.6290   -1.6561 C   0  0  0  0  0  3  0  0  0  0  0  0
    3.7081    0.3267   -1.3774 C   0  0  0  0  0  0  0  0  0  0  0  0
    4.9854   -0.4482   -1.1594 C   0  0  0  0  0  3  0  0  0  0  0  0
    6.1351    0.4811   -0.8774 C   0  0  0  0  0  0  0  0  0  0  0  0
    6.2397    0.7074    0.4864 O   0  0  0  0  0  0  0  0  0  0  0  0
  1  2  1  0
  2  3  1  0
  3  4  1  0
  4  5  1  1
  4  6  1  0
  6  7  1  0
  7  8  1  0
  7  9  1  0
  9 10  1  1
 10 11  1  0
 11 12  1  0
 12 13  1  0
 13 14  1  0
 14 15  1  0
 15 16  1  0
 16 17  1  0
 17 18  1  0
  7  1  1  0
  9  1  1  0
M  RAD  4   2   3  13   2  14   2  16   2
M  END
$$$$
