
     RDKit          3D

 24 24  0  0  0  0  0  0  0  0999 V2000
   -2.6293    3.3272   -0.8778 N   0  0  0  0  0  0  0  0  0  0  0  0
   -3.4895    2.6280   -0.2251 C   0  0  0  0  0  0  0  0  0  0  0  0
   -4.2400    3.1705    0.8785 N   0  0  0  0  0  0  0  0  0  0  0  0
   -3.6709    1.2754   -0.6461 N   0  0  0  0  0  0  0  0  0  0  0  0
   -3.0467    0.7097   -1.8221 C   0  0  0  0  0  0  0  0  0  0  0  0
   -1.5751    0.5418   -1.7495 C   0  0  0  0  0  0  0  0  0  0  0  0
   -1.0380   -0.3398   -0.6970 C   0  0  0  0  0  0  0  0  0  0  0  0
   -1.5541   -1.6690   -0.8530 N   0  0  0  0  0  0  0  0  0  0  0  0
   -2.7348   -1.9569   -0.1198 C   0  0  0  0  0  0  0  0  0  0  0  0
   -2.8826   -1.2519    1.1232 N   0  0  0  0  0  0  0  0  0  0  0  0
   -1.6716   -0.8035    1.6058 N   0  0  0  0  0  0  0  0  0  0  0  0
   -1.1217    0.0776    0.6474 N   0  0  0  0  0  0  0  0  0  0  0  0
   -0.6874    1.3373    1.1468 C   0  0  0  0  0  0  0  0  0  0  0  0
   -0.7748    1.6791    2.3513 O   0  0  0  0  0  0  0  0  0  0  0  0
   -0.6429   -2.6310   -0.9197 O   0  0  0  0  0  0  0  0  0  0  0  0
    0.5319   -2.3365   -0.2376 C   0  0  0  0  0  0  0  0  0  0  0  0
    1.4811   -3.5031   -0.3985 C   0  0  0  0  0  0  0  0  0  0  0  0
    2.7940   -3.3025    0.2969 C   0  0  0  0  0  0  0  0  0  0  0  0
    3.4283   -2.0867   -0.2807 C   0  0  0  0  0  0  0  0  0  0  0  0
    3.7360   -1.0384    0.4617 C   0  0  0  0  0  0  0  0  0  0  0  0
    4.3556    0.1464   -0.1142 C   0  0  0  0  0  0  0  0  0  0  0  0
    4.6369    1.1580    0.6929 C   0  0  0  0  0  0  0  0  0  0  0  0
    5.2631    2.3903    0.1868 C   0  0  0  0  0  0  0  0  0  0  0  0
    5.5324    2.4780   -1.0275 O   0  0  0  0  0  0  0  0  0  0  0  0
  1  2  2  0
  2  3  1  0
  2  4  1  0
  4  5  1  0
  5  6  1  0
  6  7  1  0
  7  8  1  0
  8  9  1  0
  9 10  1  0
 10 11  1  0
 11 12  1  0
 12 13  1  0
 13 14  2  0
  8 15  1  0
 15 16  1  0
 16 17  1  0
 17 18  1  0
 18 19  1  0
 19 20  2  3
 20 21  1  0
 21 22  2  3
 22 23  1  0
 23 24  2  0
 12  7  1  0
M  END
$$$$
