
     RDKit          3D

 45 46  0  0  0  0  0  0  0  0999 V2000
   10.1354    2.1459    2.6599 C   0  0  0  0  0  0  0  0  0  0  0  0
    9.6418    1.9569    1.4525 C   0  0  0  0  0  0  0  0  0  0  0  0
   10.4750    1.7939    0.2858 C   0  0  0  0  0  0  0  0  0  0  0  0
    9.9496    1.6080   -0.9020 C   0  0  0  0  0  0  0  0  0  0  0  0
    8.5004    1.5482   -1.1618 C   0  0  0  0  0  0  0  0  0  0  0  0
    7.6755    1.7253    0.0935 C   0  0  0  0  0  0  0  0  0  0  0  0
    6.2104    1.6445   -0.3044 C   0  0  0  0  0  0  0  0  0  0  0  0
    5.9620    2.7605   -1.2974 C   0  0  0  0  0  0  0  0  0  0  0  0
    4.5738    2.7134   -1.7016 N   0  0  0  0  0  0  0  0  0  0  0  0
    3.7236    3.6882   -1.3436 O   0  0  0  0  0  0  0  0  0  0  0  0
    4.1438    1.6156   -2.4777 C   0  0  0  0  0  0  0  0  0  0  0  0
    3.3336    0.7035   -1.9845 C   0  0  0  0  0  0  0  0  0  0  0  0
    2.9085   -0.4315   -2.8369 C   0  0  0  0  0  0  0  0  0  0  0  0
    3.3558   -1.7333   -2.1923 C   0  0  0  0  0  0  0  0  0  0  0  0
    2.8517    0.8190   -0.5772 C   0  0  0  0  0  3  0  0  0  0  0  0
    1.4674    0.3381   -0.5313 N   0  0  0  0  0  0  0  0  0  0  0  0
    1.2061   -0.8059    0.2712 C   0  0  0  0  0  0  0  0  0  0  0  0
    2.1434   -1.3526    0.8976 O   0  0  0  0  0  0  0  0  0  0  0  0
   -0.0996   -1.3535    0.3859 N   0  0  0  0  0  0  0  0  0  0  0  0
   -0.1469   -2.7390    1.4186 S   0  0  0  0  0  0  0  0  0  0  0  0
    1.2316   -3.2082    1.7192 O   0  0  0  0  0  0  0  0  0  0  0  0
   -0.8745   -2.4155    2.6804 O   0  0  0  0  0  0  0  0  0  0  0  0
   -0.9810   -4.0537    0.5875 C   0  0  0  0  0  0  0  0  0  0  0  0
   -2.1704   -4.0952    0.0177 C   0  0  0  0  0  0  0  0  0  0  0  0
   -2.4449   -5.4000   -0.5481 C   0  0  0  0  0  0  0  0  0  0  0  0
   -3.5626   -5.7035   -1.1724 C   0  0  0  0  0  0  0  0  0  0  0  0
   -4.6268   -4.7036   -1.3348 C   0  0  0  0  0  0  0  0  0  0  0  0
   -5.7441   -4.9856   -1.9513 C   0  0  0  0  0  0  0  0  0  0  0  0
   -3.2691   -3.1307   -0.1714 C   0  0  0  0  0  0  0  0  0  0  0  0
   -3.2936   -1.7968   -0.1498 C   0  0  0  0  0  0  0  0  0  0  0  0
   -2.3368   -0.7719    0.0511 N   0  0  0  0  0  0  0  0  0  0  0  0
   -1.0062   -0.6242   -0.3702 N   0  0  0  0  0  0  0  0  0  0  0  0
   -4.6684   -1.2596   -0.3970 C   0  0  0  0  0  0  0  0  0  0  0  0
   -5.1716   -0.4467    0.7400 C   0  0  0  0  0  0  0  0  0  0  0  0
   -5.4833    0.8046    0.5195 C   0  0  0  0  0  0  0  0  0  0  0  0
   -5.3661    1.4486   -0.7751 C   0  0  0  0  0  0  0  0  0  0  0  0
   -6.2058    2.4342   -1.0786 C   0  0  0  0  0  0  0  0  0  0  0  0
   -7.2431    2.8883   -0.1478 C   0  0  0  0  0  0  0  0  0  0  0  0
   -7.2289    4.3215   -0.0065 N   0  0  0  0  0  0  0  0  0  0  0  0
   -7.3126    2.1986    1.1634 C   0  0  0  0  0  0  0  0  0  0  0  0
   -5.9933    1.6304    1.6358 C   0  0  2  0  0  0  0  0  0  0  0  0
   -5.1028    2.7584    1.8812 N   0  0  0  0  0  0  0  0  0  0  0  0
   -3.5240    2.1556    2.2904 S   0  0  0  0  0  0  0  0  0  0  0  0
   -2.5736    2.4218    1.1483 O   0  0  0  0  0  0  0  0  0  0  0  0
   -3.0595    2.8880    3.5141 O   0  0  0  0  0  0  0  0  0  0  0  0
  1  2  2  0
  2  3  1  0
  3  4  2  3
  4  5  1  0
  5  6  1  0
  6  7  1  0
  7  8  1  0
  8  9  1  0
  9 10  1  0
  9 11  1  0
 11 12  2  3
 12 13  1  0
 13 14  1  0
 12 15  1  0
 15 16  1  0
 16 17  1  0
 17 18  2  0
 17 19  1  0
 19 20  1  0
 20 21  2  0
 20 22  2  0
 20 23  1  0
 23 24  2  3
 24 25  1  0
 25 26  2  3
 26 27  1  0
 27 28  2  0
 24 29  1  0
 29 30  2  3
 30 31  1  0
 31 32  1  0
 30 33  1  0
 33 34  1  0
 34 35  2  3
 35 36  1  0
 36 37  2  0
 37 38  1  0
 38 39  1  0
 38 40  1  0
 40 41  1  0
 41 42  1  6
 42 43  1  0
 43 44  2  0
 43 45  2  0
 32 19  1  0
 41 35  1  0
M  RAD  1  15   2
M  END
$$$$
