
     RDKit          3D

 30 29  0  0  0  0  0  0  0  0999 V2000
    7.7964   -0.0842    2.2748 C   0  0  0  0  0  0  0  0  0  0  0  0
    6.3258   -0.4168    2.1270 C   0  0  0  0  0  0  0  0  0  0  0  0
    6.0518   -1.8071    2.6418 C   0  0  0  0  0  0  0  0  0  0  0  0
    5.9163   -0.3053    0.6529 C   0  0  0  0  0  0  0  0  0  0  0  0
    6.1569    1.0959    0.1560 C   0  0  0  0  0  0  0  0  0  0  0  0
    5.7599    1.2146   -1.2831 C   0  0  0  0  0  0  0  0  0  0  0  0
    4.2887    0.8794   -1.3935 C   0  0  1  0  0  0  0  0  0  0  0  0
    3.4364    1.8192   -0.5656 C   0  0  0  0  0  0  0  0  0  0  0  0
    3.8236    0.8597   -2.8305 C   0  0  2  0  0  0  0  0  0  0  0  0
    3.9954    2.0722   -3.4730 O   0  0  0  0  0  0  0  0  0  0  0  0
    2.3790    0.4077   -2.8336 C   0  0  0  0  0  3  0  0  0  0  0  0
    1.5703    1.3795   -2.0227 C   0  0  0  0  0  0  0  0  0  0  0  0
    2.3359   -0.9999   -2.2781 C   0  0  0  0  0  0  0  0  0  0  0  0
    0.8848   -1.4337   -2.2894 C   0  0  0  0  0  0  0  0  0  0  0  0
    0.3733   -1.3976   -3.7055 C   0  0  0  0  0  2  0  0  0  0  0  0
    0.1172   -0.4549   -1.4250 C   0  0  0  0  0  0  0  0  0  0  0  0
    0.7393   -0.5492   -0.0251 C   0  0  0  0  0  0  0  0  0  0  0  0
    0.5414   -2.0117    0.3955 C   0  0  0  0  0  0  0  0  0  0  0  0
   -0.9777   -2.2260    0.3822 C   0  0  0  0  0  0  0  0  0  0  0  0
   -1.5368   -1.2235    1.3905 C   0  0  0  0  0  0  0  0  0  0  0  0
   -3.0292   -1.3083    1.4953 C   0  0  0  0  0  0  0  0  0  0  0  0
   -3.6320   -1.0117    0.1280 C   0  0  0  0  0  0  0  0  0  0  0  0
   -5.1484   -1.1014    0.2496 C   0  0  0  0  0  0  0  0  0  0  0  0
   -5.5798   -0.0878    1.2581 C   0  0  2  0  0  0  0  0  0  0  0  0
   -4.9933   -0.2841    2.6184 C   0  0  0  0  0  0  0  0  0  0  0  0
   -7.0502    0.1958    1.2569 C   0  0  2  0  0  0  0  0  0  0  0  0
   -7.4941    0.7182   -0.0764 C   0  0  0  0  0  0  0  0  0  0  0  0
   -7.3506    1.1486    2.3948 C   0  0  0  0  0  3  0  0  0  0  0  0
   -6.5791    2.4255    2.1990 C   0  0  0  0  0  2  0  0  0  0  0  0
   -9.1213    1.4406    2.5806 S   0  0  0  0  0  0  0  0  0  0  0  0
  1  2  1  0
  2  3  1  0
  2  4  1  0
  4  5  1  0
  5  6  1  0
  6  7  1  0
  7  8  1  1
  7  9  1  0
  9 10  1  1
  9 11  1  0
 11 12  1  0
 11 13  1  0
 13 14  1  0
 14 15  1  0
 14 16  1  0
 16 17  1  0
 17 18  1  0
 18 19  1  0
 19 20  1  0
 20 21  1  0
 21 22  1  0
 22 23  1  0
 23 24  1  0
 24 25  1  1
 24 26  1  0
 26 27  1  6
 26 28  1  0
 28 29  1  0
 28 30  1  0
M  RAD  4  11   2  15   3  28   2  29   3
M  END
$$$$
