
     RDKit          3D

 27 28  0  0  0  0  0  0  0  0999 V2000
   -2.9145    2.4720   -0.2894 O   0  0  0  0  0  0  0  0  0  0  0  0
   -4.2137    2.1699   -0.1919 O   0  0  0  0  0  0  0  0  0  0  0  0
   -4.4278    1.0043   -0.9302 C   0  0  0  0  0  3  0  0  0  0  0  0
   -4.5837   -0.1153   -0.1113 O   0  0  0  0  0  0  0  0  0  0  0  0
   -3.5756   -1.0351   -0.3105 C   0  0  2  0  0  0  0  0  0  0  0  0
   -4.0325   -2.4399   -0.4698 C   0  0  0  0  0  0  0  0  0  0  0  0
   -2.4985   -0.8873    0.7754 C   0  0  1  0  0  0  0  0  0  0  0  0
   -1.2273   -1.0148    0.0611 N   0  0  0  0  0  0  0  0  0  0  0  0
   -0.5612   -2.2514    0.3344 C   0  0  0  0  0  3  0  0  0  0  0  0
    0.5107   -2.4035   -0.7538 C   0  0  0  0  0  0  0  0  0  0  0  0
    1.4704   -3.5031   -0.4533 C   0  0  0  0  0  3  0  0  0  0  0  0
    1.5713   -3.6742    0.9057 O   0  0  0  0  0  0  0  0  0  0  0  0
    2.8044   -3.1381   -1.0974 C   0  0  0  0  0  0  0  0  0  0  0  0
    3.7195   -2.4692   -0.1246 C   0  0  0  0  0  0  0  0  0  0  0  0
    3.8195   -1.0836   -0.3332 O   0  0  0  0  0  0  0  0  0  0  0  0
    4.1976   -0.5254    0.8792 C   0  0  0  0  0  0  0  0  0  0  0  0
    4.0974    0.8424    0.9236 O   0  0  0  0  0  0  0  0  0  0  0  0
    3.8464    1.4319   -0.3041 C   0  0  2  0  0  0  0  0  0  0  0  0
    4.3983    2.7270   -0.2490 O   0  0  0  0  0  0  0  0  0  0  0  0
    2.3549    1.4972   -0.5571 C   0  0  0  0  0  3  0  0  0  0  0  0
    1.9773    2.8278   -0.5823 O   0  0  0  0  0  0  0  0  0  0  0  0
    0.6621    3.0255   -0.9536 C   0  0  0  0  0  3  0  0  0  0  0  0
   -0.2611    2.4415    0.1118 C   0  0  0  0  0  3  0  0  0  0  0  0
   -2.5534    0.6112    1.1303 C   0  0  1  0  0  0  0  0  0  0  0  0
   -1.4524    0.8526    1.9487 O   0  0  0  0  0  0  0  0  0  0  0  0
   -2.2356    1.2843   -0.2154 C   0  0  2  0  0  0  0  0  0  0  0  0
   -0.8927    1.3531   -0.4579 O   0  0  0  0  0  0  0  0  0  0  0  0
  1  2  1  0
  2  3  1  0
  3  4  1  0
  4  5  1  0
  5  6  1  1
  5  7  1  0
  7  8  1  6
  8  9  1  0
  9 10  1  0
 10 11  1  0
 11 12  1  0
 11 13  1  0
 13 14  1  0
 14 15  1  0
 15 16  1  0
 16 17  1  0
 17 18  1  0
 18 19  1  1
 18 20  1  0
 20 21  1  0
 21 22  1  0
 22 23  1  0
  7 24  1  0
 24 25  1  1
 24 26  1  0
 26 27  1  1
 26  1  1  0
 27 23  1  0
M  RAD  6   3   2   9   2  11   2  20   2  22   2  23   2
M  END
$$$$
