
     RDKit          3D

 20 21  0  0  0  0  0  0  0  0999 V2000
    6.4234    2.4354    0.4200 C   0  0  0  0  0  0  0  0  0  0  0  0
    6.1940    0.9628    0.2873 C   0  0  0  0  0  0  0  0  0  0  0  0
    7.1883    0.2029   -0.5506 C   0  0  0  0  0  0  0  0  0  0  0  0
    5.9526   -0.3157   -1.2584 C   0  0  0  0  0  0  0  0  0  0  0  0
    5.0836    0.5589   -0.5137 N   0  0  0  0  0  0  0  0  0  0  0  0
    4.1019   -0.1590    0.2526 C   0  0  0  0  0  0  0  0  0  0  0  0
    3.0759   -0.8485   -0.6009 C   0  0  0  0  0  0  0  0  0  0  0  0
    1.8172   -0.4685   -0.4130 C   0  0  0  0  0  0  0  0  0  0  0  0
    1.4546    0.5485    0.5563 C   0  0  0  0  0  0  0  0  0  0  0  0
    0.2105    0.9200    0.7341 C   0  0  0  0  0  0  0  0  0  0  0  0
   -0.8359    1.6742    1.3297 C   0  0  0  0  0  0  0  0  0  0  0  0
   -1.1961    0.7994    0.3829 C   0  0  0  0  0  0  0  0  0  0  0  0
   -2.2641    0.1696   -0.4298 C   0  0  0  0  0  0  0  0  0  0  0  0
   -2.3133   -1.2936   -0.1975 C   0  0  0  0  0  0  0  0  0  0  0  0
   -3.4536   -1.7951    0.2983 C   0  0  0  0  0  0  0  0  0  0  0  0
   -4.6146   -0.9087    0.5993 C   0  0  0  0  0  0  0  0  0  0  0  0
   -5.7740   -1.3603   -0.2291 C   0  0  0  0  0  0  0  0  0  0  0  0
   -7.0140   -0.5307   -0.0116 C   0  0  0  0  0  0  0  0  0  0  0  0
   -7.5047   -0.5483    1.4157 C   0  0  0  0  0  0  0  0  0  0  0  0
   -6.5316   -0.0432    2.3486 N   0  0  0  0  0  0  0  0  0  0  0  0
  1  2  1  0
  2  3  1  0
  3  4  1  0
  4  5  1  0
  5  6  1  0
  6  7  1  0
  7  8  2  3
  8  9  1  0
  9 10  2  3
 10 11  1  0
 11 12  2  0
 12 13  1  0
 13 14  1  0
 14 15  2  3
 15 16  1  0
 16 17  1  0
 17 18  1  0
 18 19  1  0
 19 20  1  0
  5  2  1  0
 12 10  1  0
M  END
$$$$
