
     RDKit          3D

 39 41  0  0  0  0  0  0  0  0999 V2000
    1.1292    0.0869   -0.6825 C   0  0  0  0  0  0  0  0  0  0  0  0
    1.0327   -1.1705    0.1343 C   0  0  0  0  0  0  0  0  0  0  0  0
   -0.3870   -1.3582    0.6323 C   0  0  0  0  0  0  0  0  0  0  0  0
    1.4993   -2.3807   -0.6509 C   0  0  0  0  0  0  0  0  0  0  0  0
    1.5792   -3.5748    0.2729 C   0  0  0  0  0  0  0  0  0  0  0  0
    0.9161   -4.7472   -0.4194 C   0  0  0  0  0  0  0  0  0  0  0  0
   -0.2482   -5.2923    0.3536 C   0  0  1  0  0  0  0  0  0  0  0  0
   -0.1768   -4.9509    1.8097 C   0  0  0  0  0  0  0  0  0  0  0  0
   -1.5302   -4.7797   -0.2508 C   0  0  0  0  0  3  0  0  0  0  0  0
   -2.7256   -5.2277    0.5455 C   0  0  0  0  0  0  0  0  0  0  0  0
   -3.8164   -4.1911    0.6033 C   0  0  0  0  0  0  0  0  0  0  0  0
   -3.5784   -3.1394   -0.4568 C   0  0  0  0  0  3  0  0  0  0  0  0
   -4.4605   -1.9151   -0.1872 C   0  0  1  0  0  0  0  0  0  0  0  0
   -5.1202   -2.0052    1.0805 N   0  0  0  0  0  0  0  0  0  0  0  0
   -3.5807   -0.7068   -0.3352 C   0  0  0  0  0  0  0  0  0  0  0  0
   -4.0374    0.4528    0.5377 C   0  0  0  0  0  0  0  0  0  0  0  0
   -5.3489    0.1474    0.9279 F   0  0  0  0  0  0  0  0  0  0  0  0
   -4.1074    1.6964   -0.2841 C   0  0  1  0  0  0  0  0  0  0  0  0
   -4.5107    2.9226    0.3569 C   0  0  0  0  0  0  0  0  0  0  0  0
   -3.3877    3.5130    0.1003 C   0  0  0  0  0  0  0  0  0  0  0  0
   -2.7916    5.1743    0.4786 S   0  0  0  0  0  0  0  0  0  0  0  0
   -2.8411    2.3630   -0.5731 C   0  0  0  0  0  0  0  0  0  0  0  0
   -2.5387    2.5150   -2.0507 C   0  0  0  0  0  0  0  0  0  0  0  0
   -1.4145    3.8975   -2.3638 S   0  0  0  0  0  0  0  0  0  0  0  0
    0.2999    3.3912   -2.1664 C   0  0  0  0  0  0  0  0  0  0  0  0
    1.1550    4.6207   -2.0465 C   0  0  0  0  0  0  0  0  0  0  0  0
   -1.6481    1.7876    0.1695 C   0  0  0  0  0  0  0  0  0  0  0  0
   -0.5546    2.8460    0.1329 C   0  0  0  0  0  0  0  0  0  0  0  0
    0.3986    2.4879   -0.9569 C   0  0  0  0  0  0  0  0  0  0  0  0
    1.8382    2.4167   -0.4997 C   0  0  0  0  0  3  0  0  0  0  0  0
    2.7109    2.7045   -1.7037 C   0  0  0  0  0  0  0  0  0  0  0  0
    2.0939    1.0192    0.0191 C   0  0  0  0  0  0  0  0  0  0  0  0
    3.4995    0.5621   -0.3216 C   0  0  0  0  0  0  0  0  0  0  0  0
    4.4926    1.4615    0.3553 C   0  0  0  0  0  3  0  0  0  0  0  0
    5.9047    1.0109    0.0195 C   0  0  0  0  0  0  0  0  0  0  0  0
    6.0451   -0.4214    0.5249 C   0  0  0  0  0  0  0  0  0  0  0  0
    7.4119   -0.9618    0.2403 C   0  0  0  0  0  0  0  0  0  0  0  0
    8.4841   -0.1339    0.9097 C   0  0  0  0  0  0  0  0  0  0  0  0
    8.3137   -0.1202    2.3027 O   0  0  0  0  0  1  0  0  0  0  0  0
  1  2  1  0
  2  3  1  0
  2  4  1  0
  4  5  1  0
  5  6  1  0
  6  7  1  0
  7  8  1  1
  7  9  1  0
  9 10  1  0
 10 11  1  0
 11 12  1  0
 12 13  1  0
 13 14  1  1
 13 15  1  0
 15 16  1  0
 16 17  1  0
 18 16  1  1
 18 19  1  0
 19 20  2  0
 20 21  1  0
 20 22  1  0
 22 23  1  0
 23 24  1  0
 24 25  1  0
 25 26  1  0
 22 27  1  0
 27 28  1  0
 28 29  1  0
 29 30  1  0
 30 31  1  0
 30 32  1  0
 32 33  1  0
 33 34  1  0
 34 35  1  0
 35 36  1  0
 36 37  1  0
 37 38  1  0
 38 39  1  0
 32  1  1  0
 22 18  1  0
 29 25  1  0
M  CHG  1  39  -1
M  RAD  4   9   2  12   2  30   2  34   2
M  END
$$$$
