
     RDKit          3D

 25 26  0  0  0  0  0  0  0  0999 V2000
   -4.7272    1.8669   -0.0057 C   0  0  0  0  0  0  0  0  0  0  0  0
   -3.6477    1.1204    0.7699 C   0  0  1  0  0  0  0  0  0  0  0  0
   -4.0751   -0.3431    0.7945 C   0  0  0  0  0  0  0  0  0  0  0  0
   -2.9024   -1.2469    1.0282 C   0  0  2  0  0  0  0  0  0  0  0  0
   -2.3661   -1.1287    2.2895 O   0  0  0  0  0  0  0  0  0  0  0  0
   -1.8620   -1.1371   -0.0594 C   0  0  2  0  0  0  0  0  0  0  0  0
   -0.5934   -0.9939    0.4519 O   0  0  0  0  0  0  0  0  0  0  0  0
   -2.2597    0.0559   -0.9238 C   0  0  1  0  0  0  0  0  0  0  0  0
   -3.4520   -0.1957   -1.5652 O   0  0  0  0  0  0  0  0  0  0  0  0
   -2.3443    1.2481    0.0174 C   0  0  1  0  0  0  0  0  0  0  0  0
   -2.3241    2.4547   -0.8099 N   0  0  0  0  0  0  0  0  0  0  0  0
   -0.9340    2.6985   -1.1533 C   0  0  0  0  0  3  0  0  0  0  0  0
   -0.3806    1.6269   -2.0669 C   0  0  0  0  0  0  0  0  0  0  0  0
    0.5252    0.6889   -1.3926 C   0  0  0  0  0  3  0  0  0  0  0  0
    1.0559    1.0551   -0.2020 O   0  0  0  0  0  0  0  0  0  0  0  0
    0.3451   -0.6377   -1.6278 O   0  0  0  0  0  0  0  0  0  0  0  0
    0.4007   -1.3663   -0.4447 C   0  0  1  0  0  0  0  0  0  0  0  0
    1.7401   -1.1176    0.1901 C   0  0  1  0  0  0  0  0  0  0  0  0
    1.8245   -1.8752    1.3438 O   0  0  0  0  0  0  0  0  0  0  0  0
    2.8697   -1.4529   -0.7658 C   0  0  2  0  0  0  0  0  0  0  0  0
    2.8071   -2.7936   -1.1130 O   0  0  0  0  0  0  0  0  0  0  0  0
    4.2111   -1.0755   -0.2008 C   0  0  0  0  0  3  0  0  0  0  0  0
    4.2285    0.3957    0.0604 C   0  0  0  0  0  0  0  0  0  0  0  0
    5.5168    0.8983    0.6273 C   0  0  0  0  0  3  0  0  0  0  0  0
    6.3437    1.2549   -0.4356 O   0  0  0  0  0  0  0  0  0  0  0  0
  2  1  1  6
  2  3  1  0
  3  4  1  0
  4  5  1  1
  4  6  1  0
  6  7  1  1
  6  8  1  0
  8  9  1  1
  8 10  1  0
 10 11  1  6
 11 12  1  0
 12 13  1  0
 13 14  1  0
 14 15  1  0
 14 16  1  0
 17 16  1  6
 17 18  1  0
 18 19  1  1
 18 20  1  0
 20 21  1  1
 20 22  1  0
 22 23  1  0
 23 24  1  0
 24 25  1  0
 10  2  1  0
 17  7  1  0
M  RAD  4  12   2  14   2  22   2  24   2
M  END
$$$$
