
     RDKit          3D

 15 15  0  0  0  0  0  0  0  0999 V2000
   -0.0408   -0.1656    2.7220 C   0  0  0  0  0  0  0  0  0  0  0  0
   -0.6016   -1.1369    1.7282 C   0  0  1  0  0  0  0  0  0  0  0  0
   -2.0947   -0.9783    1.7294 C   0  0  0  0  0  0  0  0  0  0  0  0
   -2.4445    0.1490    0.8096 C   0  0  2  0  0  0  0  0  0  0  0  0
   -3.7229    0.6083    0.9358 O   0  0  0  0  0  0  0  0  0  0  0  0
   -2.1387   -0.3658   -0.6026 C   0  0  2  0  0  0  0  0  0  0  0  0
   -2.6876   -1.6406   -0.7724 O   0  0  0  0  0  0  0  0  0  0  0  0
   -0.6552   -0.4310   -0.7123 C   0  0  1  0  0  0  0  0  0  0  0  0
   -0.1836    0.8464   -1.0225 O   0  0  0  0  0  0  0  0  0  0  0  0
    0.0560   -1.0872    0.3961 C   0  0  1  0  0  0  0  0  0  0  0  0
    1.3622   -0.4592    0.5895 N   0  0  0  0  0  0  0  0  0  0  0  0
    1.9783   -0.2004   -0.7152 C   0  0  0  0  0  3  0  0  0  0  0  0
    3.1776    0.6191   -0.4579 C   0  0  0  0  0  0  0  0  0  0  0  0
    3.3901    1.8203   -0.9548 C   0  0  0  0  0  0  0  0  0  0  0  0
    4.6053    2.4219   -0.5777 O   0  0  0  0  0  0  0  0  0  0  0  0
  2  1  1  1
  2  3  1  0
  3  4  1  0
  4  5  1  6
  4  6  1  0
  6  7  1  1
  6  8  1  0
  8  9  1  1
  8 10  1  0
 10 11  1  1
 11 12  1  0
 12 13  1  0
 13 14  2  3
 14 15  1  0
 10  2  1  0
M  RAD  1  12   2
M  END
$$$$
