
     RDKit          3D

 10  9  0  0  0  0  0  0  0  0999 V2000
    4.0665   -0.3914   -0.4820 C   0  0  0  0  0  0  0  0  0  0  0  0
    2.6323   -0.6763   -0.6164 C   0  0  0  0  0  0  0  0  0  0  0  0
    1.6910    0.0818   -0.0902 C   0  0  0  0  0  0  0  0  0  0  0  0
    0.2983   -0.2826   -0.2789 C   0  0  0  0  0  0  0  0  0  0  0  0
   -0.7069    0.3988    0.1990 C   0  0  0  0  0  0  0  0  0  0  0  0
   -2.0284   -0.0280   -0.0315 N   0  0  0  0  0  0  0  0  0  0  0  0
   -2.2675   -1.3736   -0.4712 C   0  0  0  0  0  0  0  0  0  0  0  0
   -1.9159   -2.3089    0.6680 C   0  0  0  0  0  0  0  0  0  0  0  0
   -0.4827    1.6233    0.9871 C   0  0  0  0  0  0  0  0  0  0  0  0
   -1.2868    2.9569    0.1161 Cl  0  0  0  0  0  0  0  0  0  0  0  0
  1  2  1  0
  2  3  2  3
  3  4  1  0
  4  5  2  3
  5  6  1  0
  6  7  1  0
  7  8  1  0
  5  9  1  0
  9 10  1  0
M  END
$$$$
