
     RDKit          3D

 26 28  0  0  0  0  0  0  0  0999 V2000
    3.8082    2.6905   -1.7587 C   0  0  0  0  0  0  0  0  0  0  0  0
    4.1908    1.6354   -0.7813 C   0  0  0  0  0  0  0  0  0  0  0  0
    5.0823    1.9155    0.0802 O   0  0  0  0  0  0  0  0  0  0  0  0
    3.6168    0.3709   -0.7754 O   0  0  0  0  0  0  0  0  0  0  0  0
    4.0358   -0.5781    0.1882 C   0  0  0  0  0  3  0  0  0  0  0  0
    5.1624   -1.3769   -0.3115 C   0  0  0  0  0  0  0  0  0  0  0  0
    5.2453   -2.5480    0.0073 O   0  0  0  0  0  0  0  0  0  0  0  0
    2.8697   -1.5090    0.4502 C   0  0  0  0  0  0  0  0  0  0  0  0
    1.7298   -0.6747    0.9595 C   0  0  0  0  0  0  0  0  0  0  0  0
    0.4974   -1.5029    1.2590 C   0  0  0  0  0  3  0  0  0  0  0  0
   -0.5651   -0.5914    1.7531 C   0  0  0  0  0  0  0  0  0  0  0  0
   -1.8551   -1.3016    2.0894 C   0  0  0  0  0  0  0  0  0  0  0  0
   -2.5930   -1.6477    0.8091 C   0  0  2  0  0  0  0  0  0  0  0  0
   -1.7169   -2.7097    0.1284 C   0  0  0  0  0  0  0  0  0  0  0  0
   -2.6812   -0.4233    0.0442 C   0  0  0  0  0  0  0  0  0  0  0  0
   -3.4139    0.4745   -0.4690 C   0  0  0  0  0  0  0  0  0  0  0  0
   -3.4653    0.3550   -1.9217 C   0  0  0  0  0  0  0  0  0  0  0  0
   -4.3932    0.8332   -2.6003 O   0  0  0  0  0  0  0  0  0  0  0  0
   -2.2838   -0.4025   -2.5433 C   0  0  0  0  0  0  0  0  0  0  0  0
   -1.1545   -0.7057   -1.5393 C   0  0  0  0  0  0  0  0  0  0  0  0
   -1.2686    0.1489   -0.4451 C   0  0  1  0  0  0  0  0  0  0  0  0
   -1.4835    1.5104   -1.1984 C   0  0  0  0  0  0  0  0  0  0  0  0
   -0.8182    0.5811    0.7953 C   0  0  1  0  0  0  0  0  0  0  0  0
   -1.8404    1.4152    1.4970 C   0  0  0  0  0  0  0  0  0  0  0  0
   -2.7326    2.3839    0.8752 C   0  0  0  0  0  0  0  0  0  0  0  0
   -3.9733    1.6572    0.1690 C   0  0  0  0  0  3  0  0  0  0  0  0
  1  2  1  0
  2  3  2  0
  2  4  1  0
  4  5  1  0
  5  6  1  0
  6  7  2  0
  5  8  1  0
  8  9  1  0
  9 10  1  0
 10 11  1  0
 11 12  1  0
 12 13  1  0
 13 14  1  6
 13 15  1  0
 15 16  2  0
 16 17  1  0
 17 18  2  0
 17 19  1  0
 19 20  1  0
 20 21  1  0
 21 22  1  6
 21 23  1  0
 23 24  1  1
 24 25  1  0
 25 26  1  0
 23 11  1  0
 21 15  1  0
 26 16  1  0
M  RAD  3   5   2  10   2  26   2
M  END
$$$$
