
     RDKit          3D

  9  8  0  0  0  0  0  0  0  0999 V2000
    2.5329   -0.9793    0.4723 O   0  0  0  0  0  0  0  0  0  0  0  0
    2.2594    0.0818   -0.2591 O   0  0  0  0  0  0  0  0  0  0  0  0
    1.0004   -0.1301   -0.8233 C   0  0  0  0  0  3  0  0  0  0  0  0
    0.2896    1.0559   -0.6752 O   0  0  0  0  0  0  0  0  0  0  0  0
   -0.8606    0.9192    0.0818 C   0  0  2  0  0  0  0  0  0  0  0  0
   -1.2360    2.1584    0.8351 C   0  0  0  0  0  0  0  0  0  0  0  0
   -0.8305   -0.2940    0.9659 C   0  0  0  0  0  3  0  0  0  0  0  0
   -1.7588   -1.3245    0.3708 C   0  0  0  0  0  3  0  0  0  0  0  0
   -1.3965   -1.4874   -0.9682 O   0  0  0  0  0  0  0  0  0  0  0  0
  1  2  1  0
  2  3  1  0
  3  4  1  0
  4  5  1  0
  5  6  1  1
  5  7  1  0
  7  8  1  0
  8  9  1  0
M  RAD  3   3   2   7   2   8   2
M  END
$$$$
