
     RDKit          3D

  5  4  0  0  0  0  0  0  0  0999 V2000
   -1.9121   -0.3202   -0.3570 N   0  0  0  0  0  0  0  0  0  0  0  0
   -0.9743    0.6931   -0.0697 N   0  0  0  0  0  2  0  0  0  0  0  0
   -0.0210    0.0995    0.7399 O   0  0  0  0  0  0  0  0  0  0  0  0
    0.9747   -0.5976    0.0694 N   0  0  0  0  0  3  0  0  0  0  0  0
    1.9327    0.1252   -0.3827 N   0  0  0  0  0  2  0  0  0  0  0  0
  1  2  1  0
  2  3  1  0
  3  4  1  0
  4  5  2  0
M  CHG  3   2   1   4   1   5  -1
M  RAD  2   2   3   4   2
M  END
$$$$
