
     RDKit          3D

 11 11  0  0  0  0  0  0  0  0999 V2000
    2.3993   -0.1714   -0.6934 O   0  0  0  0  0  0  0  0  0  0  0  0
    2.0738    0.2741    0.5584 C   0  0  0  0  0  0  0  0  0  0  0  0
    0.6592    0.6501    0.7745 C   0  0  1  0  0  0  0  0  0  0  0  0
    0.1261    1.6822   -0.0258 N   0  0  0  0  0  0  0  0  0  0  0  0
   -0.7031    1.2930   -1.1145 C   0  0  0  0  0  3  0  0  0  0  0  0
   -1.6647    0.1806   -0.7746 C   0  0  2  0  0  0  0  0  0  0  0  0
   -2.5732    0.5168    0.2029 O   0  0  0  0  0  0  0  0  0  0  0  0
   -0.8344   -0.9823   -0.2749 C   0  0  1  0  0  0  0  0  0  0  0  0
    0.1039   -1.3451   -1.2235 O   0  0  0  0  0  0  0  0  0  0  0  0
   -0.1807   -0.5480    1.0102 C   0  0  1  0  0  0  0  0  0  0  0  0
    0.5938   -1.5500    1.5608 O   0  0  0  0  0  0  0  0  0  0  0  0
  1  2  1  0
  3  2  1  6
  3  4  1  0
  4  5  1  0
  5  6  1  0
  6  7  1  1
  6  8  1  0
  8  9  1  6
  8 10  1  0
 10 11  1  6
 10  3  1  0
M  RAD  1   5   2
M  END
$$$$
