
     RDKit          3D

 32 33  0  0  0  0  0  0  0  0999 V2000
   -4.8697   -1.5556    0.7173 N   0  0  0  0  0  0  0  0  0  0  0  0
   -5.8712   -2.1902    0.0686 C   0  0  0  0  0  0  0  0  0  0  0  0
   -6.3500   -1.8097   -1.1469 C   0  0  0  0  0  0  0  0  0  0  0  0
   -6.7126   -0.5126   -1.3679 C   0  0  0  0  0  0  0  0  0  0  0  0
   -7.6851    0.1518   -0.6747 C   0  0  0  0  0  0  0  0  0  0  0  0
   -8.6512   -0.5817   -0.0066 C   0  0  0  0  0  0  0  0  0  0  0  0
   -8.5639   -0.7594    1.3676 C   0  0  0  0  0  0  0  0  0  0  0  0
   -7.3148   -0.8844    1.9680 C   0  0  0  0  0  0  0  0  0  0  0  0
   -6.3097    0.0212    1.6359 C   0  0  0  0  0  0  0  0  0  0  0  0
   -5.0319   -0.3715    1.3293 C   0  0  0  0  0  0  0  0  0  0  0  0
   -3.9268    0.4999    1.6760 C   0  0  0  0  0  0  0  0  0  0  0  0
   -2.6651    0.2442    1.4400 C   0  0  0  0  0  0  0  0  0  0  0  0
   -1.7051    1.2105    1.8469 N   0  0  0  0  0  3  0  0  0  0  0  0
   -1.2525    2.1371    1.0704 C   0  0  0  0  0  0  0  0  0  0  0  0
   -1.7542    2.1585   -0.2244 O   0  0  0  0  0  0  0  0  0  0  0  0
   -1.6667    0.9445   -0.9287 C   0  0  0  0  0  0  0  0  0  0  0  0
   -0.5121    0.5681   -1.4427 C   0  0  0  0  0  0  0  0  0  0  0  0
    0.9210    0.3878   -2.1567 S   0  0  0  0  0  0  0  0  0  0  0  0
    2.3861    1.3505   -1.6716 C   0  0  0  0  0  0  0  0  0  0  0  0
    3.1763    0.6670   -0.5901 C   0  0  1  0  0  0  0  0  0  0  0  0
    2.3712    0.4490    0.6678 C   0  0  0  0  0  0  0  0  0  0  0  0
    1.6749   -0.8697    0.3061 C   0  0  0  0  0  3  0  0  0  0  0  0
    2.7741   -1.5538   -0.4550 C   0  0  0  0  0  0  0  0  0  0  0  0
    3.6156   -0.6936   -0.9567 C   0  0  0  0  0  0  0  0  0  0  0  0
    4.7723   -1.0175   -1.7334 N   0  0  0  0  0  0  0  0  0  0  0  0
    6.0615   -0.6424   -1.3522 N   0  0  0  0  0  0  0  0  0  0  0  0
    6.3396   -0.2041   -0.1664 C   0  0  0  0  0  0  0  0  0  0  0  0
    7.7357    0.1674    0.1392 C   0  0  0  0  0  3  0  0  0  0  0  0
    8.6141   -0.0797   -0.9580 N   0  0  0  0  0  0  0  0  0  0  0  0
    9.8530   -0.3091   -0.8671 C   0  0  0  0  0  0  0  0  0  0  0  0
   10.7566   -0.3709    0.6519 S   0  0  0  0  0  0  0  0  0  0  0  0
    9.7906   -0.5546    1.8140 O   0  0  0  0  0  0  0  0  0  0  0  0
  1  2  2  0
  2  3  1  0
  3  4  2  0
  4  5  1  0
  5  6  2  0
  6  7  1  0
  7  8  2  0
  8  9  1  0
  9 10  2  0
 10 11  1  0
 11 12  2  3
 12 13  1  0
 13 14  2  3
 14 15  1  0
 15 16  1  0
 16 17  2  0
 17 18  2  0
 18 19  1  0
 20 19  1  6
 20 21  1  0
 21 22  1  0
 22 23  1  0
 23 24  2  0
 24 25  1  0
 25 26  1  0
 26 27  2  3
 27 28  1  0
 28 29  1  0
 29 30  2  3
 30 31  1  0
 31 32  2  0
  1 10  1  0
 24 20  1  0
M  CHG  1  13   1
M  RAD  3  13   2  22   2  28   2
M  END
$$$$
