
     RDKit          3D

 54 54  0  0  0  0  0  0  0  0999 V2000
    9.5339    1.5420   -2.8463 C   0  0  0  0  0  0  0  0  0  0  0  0
   10.9733    1.3022   -2.5364 C   0  0  0  0  0  0  0  0  0  0  0  0
   11.8500    1.2894   -3.7427 C   0  0  0  0  0  0  0  0  0  0  0  0
   11.5153    2.0346   -1.3811 C   0  0  0  0  0  0  0  0  0  0  0  0
   10.9377    1.8009   -0.0470 C   0  0  0  0  0  0  0  0  0  0  0  0
   11.0298    0.4336    0.5092 C   0  0  0  0  0  0  0  0  0  0  0  0
   10.2857   -0.5561   -0.3476 C   0  0  1  0  0  0  0  0  0  0  0  0
   10.4741   -1.9468    0.3044 C   0  0  0  0  0  0  0  0  0  0  0  0
    8.7749   -0.2840   -0.2004 C   0  0  0  0  0  3  0  0  0  0  0  0
    8.0872   -1.2958   -1.0801 C   0  0  0  0  0  3  0  0  0  0  0  0
    6.7483   -0.7784   -1.5199 C   0  0  0  0  0  0  0  0  0  0  0  0
    5.8913   -0.5237   -0.3001 C   0  0  2  0  0  0  0  0  0  0  0  0
    6.5999    0.5104    0.5672 C   0  0  0  0  0  0  0  0  0  0  0  0
    5.8976   -1.8226    0.5163 C   0  0  0  0  0  3  0  0  0  0  0  0
    5.0375   -1.6113    1.7616 C   0  0  0  0  0  0  0  0  0  0  0  0
    3.6439   -1.2794    1.3157 C   0  0  0  0  0  0  0  0  0  0  0  0
    2.7647   -1.0632    2.5286 C   0  0  0  0  0  0  0  0  0  0  0  0
    3.5910   -0.1037    0.3834 C   0  0  0  0  0  0  0  0  0  0  0  0
    2.1577    0.1554   -0.0122 C   0  0  0  0  0  0  0  0  0  0  0  0
    1.5891   -1.0733   -0.7103 C   0  0  0  0  0  0  0  0  0  0  0  0
    1.6154   -2.2832    0.1705 C   0  0  0  0  0  0  0  0  0  0  0  0
    2.4342   -1.3573   -1.9520 C   0  0  0  0  0  2  0  0  0  0  0  0
    0.2086   -0.7150   -1.2056 C   0  0  0  0  0  0  0  0  0  0  0  0
    0.3659    0.4437   -2.1647 C   0  0  0  0  0  3  0  0  0  0  0  0
    0.2871    1.6557   -1.5017 O   0  0  0  0  0  0  0  0  0  0  0  0
   -1.0119    2.1437   -1.6294 C   0  0  0  0  0  0  0  0  0  0  0  0
   -1.9126    1.1047   -0.9993 C   0  0  0  0  0  0  0  0  0  0  0  0
   -1.6559    0.8301    0.4292 C   0  0  0  0  0  2  0  0  0  0  0  0
   -2.8702    0.4947   -1.7174 C   0  0  0  0  0  0  0  0  0  0  0  0
   -2.9848    0.8925   -3.1254 C   0  0  0  0  0  3  0  0  0  0  0  0
   -3.9847    1.9085   -3.4673 C   0  0  0  0  0  0  0  0  0  0  0  0
   -5.3670    1.5338   -3.4270 C   0  0  0  0  0  0  0  0  0  0  0  0
   -5.9733    0.4098   -3.1879 C   0  0  0  0  0  0  0  0  0  0  0  0
   -7.4613    0.2805   -3.2106 C   0  0  0  0  0  0  0  0  0  0  0  0
   -8.0758   -0.2508   -1.9725 C   0  0  0  0  0  0  0  0  0  0  0  0
   -7.6052   -1.6525   -1.6289 C   0  0  0  0  0  0  0  0  0  0  0  0
   -8.2612   -2.1614   -0.3774 C   0  0  0  0  0  0  0  0  0  0  0  0
   -7.7330   -2.5800   -2.7974 C   0  0  0  0  0  0  0  0  0  0  0  0
   -3.6938   -0.5196   -1.0489 C   0  0  0  0  0  0  0  0  0  0  0  0
   -3.7926   -1.8060   -1.8424 C   0  0  0  0  0  2  0  0  0  0  0  0
   -3.2953   -0.7419    0.3657 C   0  0  0  0  0  0  0  0  0  0  0  0
   -4.0579   -1.7367    1.1449 C   0  0  0  0  0  3  0  0  0  0  0  0
   -5.4968   -1.4227    1.3697 C   0  0  0  0  0  0  0  0  0  0  0  0
   -5.6989   -0.1251    2.1269 C   0  0  2  0  0  0  0  0  0  0  0  0
   -5.0161   -0.2456    3.4739 C   0  0  0  0  0  0  0  0  0  0  0  0
   -4.5011    1.0912    3.9565 C   0  0  0  0  0  0  0  0  0  0  0  0
   -5.3538    1.5369    5.1234 C   0  0  0  0  0  0  0  0  0  0  0  0
   -4.3967    2.1028    2.8674 C   0  0  0  0  0  3  0  0  0  0  0  0
   -5.5119    3.1121    2.9882 C   0  0  0  0  0  0  0  0  0  0  0  0
   -6.7604    2.4136    3.3643 C   0  0  0  0  0  0  0  0  0  0  0  0
   -7.4449    1.3093    3.1458 C   0  0  0  0  0  0  0  0  0  0  0  0
   -7.1834    0.1245    2.2836 C   0  0  2  0  0  0  0  0  0  0  0  0
   -7.8968   -1.0991    2.8203 C   0  0  0  0  0  3  0  0  0  0  0  0
   -7.2966   -1.4211    4.1632 C   0  0  0  0  0  1  0  0  0  0  0  0
  1  2  1  0
  2  3  1  0
  2  4  1  0
  4  5  1  0
  5  6  1  0
  6  7  1  0
  7  8  1  1
  7  9  1  0
  9 10  1  0
 10 11  1  0
 11 12  1  0
 12 13  1  1
 12 14  1  0
 14 15  1  0
 15 16  1  0
 16 17  1  0
 16 18  1  0
 18 19  1  0
 19 20  1  0
 20 21  1  0
 20 22  1  0
 20 23  1  0
 23 24  1  0
 24 25  1  0
 25 26  1  0
 26 27  1  0
 27 28  1  0
 27 29  2  3
 29 30  1  0
 30 31  1  0
 31 32  1  0
 32 33  2  3
 33 34  1  0
 34 35  1  0
 35 36  1  0
 36 37  1  0
 36 38  1  0
 29 39  1  0
 39 40  1  0
 39 41  1  0
 41 42  1  0
 42 43  1  0
 44 43  1  6
 44 45  1  0
 45 46  1  0
 46 47  1  0
 46 48  1  0
 48 49  1  0
 49 50  1  0
 50 51  2  3
 44 52  1  0
 52 53  1  1
 53 54  1  0
 52 51  1  0
M  RAD  8   9   2  10   2  14   2  22   3  24   2  28   3  30   2  40   3
M  RAD  4  42   2  48   2  53   2  54   2
M  END
$$$$
