
     RDKit          3D

 16 16  0  0  0  0  0  0  0  0999 V2000
   -0.0442    0.2915   -2.7010 C   0  0  0  0  0  0  0  0  0  0  0  0
   -0.7678    0.8434   -1.5214 C   0  0  1  0  0  0  0  0  0  0  0  0
   -2.2278    0.6222   -1.5313 C   0  0  0  0  0  0  0  0  0  0  0  0
   -2.7023   -0.5964   -0.8006 C   0  0  2  0  0  0  0  0  0  0  0  0
   -4.0341   -0.3908   -0.4447 O   0  0  0  0  0  0  0  0  0  0  0  0
   -1.9302   -0.8726    0.4645 C   0  0  2  0  0  0  0  0  0  0  0  0
   -2.7297   -1.3470    1.4992 O   0  0  0  0  0  0  0  0  0  0  0  0
   -1.2236    0.4329    0.8207 C   0  0  1  0  0  0  0  0  0  0  0  0
   -0.7254    0.4443    2.1075 O   0  0  0  0  0  0  0  0  0  0  0  0
   -0.0835    0.5323   -0.2109 C   0  0  1  0  0  0  0  0  0  0  0  0
    0.4382   -0.7903   -0.3196 N   0  0  0  0  0  0  0  0  0  0  0  0
    1.7115   -1.0245    0.3100 C   0  0  0  0  0  3  0  0  0  0  0  0
    2.8296   -0.5392   -0.5524 C   0  0  0  0  0  0  0  0  0  0  0  0
    3.3714    0.6505   -0.0818 O   0  0  0  0  0  0  0  0  0  0  0  0
    4.0274    0.6306    1.1585 C   0  0  0  0  0  0  0  0  0  0  0  0
    4.0905   -0.4697    1.8031 O   0  0  0  0  0  0  0  0  0  0  0  0
  2  1  1  6
  2  3  1  0
  3  4  1  0
  4  5  1  1
  4  6  1  0
  6  7  1  1
  6  8  1  0
  8  9  1  1
  8 10  1  0
 10 11  1  6
 11 12  1  0
 12 13  1  0
 13 14  1  0
 14 15  1  0
 15 16  2  0
 10  2  1  0
M  RAD  1  12   2
M  END
$$$$
