
     RDKit          3D

 63 65  0  0  0  0  0  0  0  0999 V2000
   -2.1540   -5.1209   -0.2724 C   0  0  0  0  0  0  0  0  0  0  0  0
   -1.8069   -4.6981    1.1209 C   0  0  0  0  0  0  0  0  0  0  0  0
   -2.2366   -5.7842    2.0841 C   0  0  0  0  0  0  0  0  0  0  0  0
   -2.4290   -3.3786    1.4773 C   0  0  0  0  0  0  0  0  0  0  0  0
   -1.9671   -2.3091    0.5569 C   0  0  0  0  0  0  0  0  0  0  0  0
   -2.3750   -2.6006   -0.8717 C   0  0  0  0  0  0  0  0  0  0  0  0
   -1.8503   -1.4780   -1.7657 C   0  0  1  0  0  0  0  0  0  0  0  0
   -1.7647   -0.2418   -0.9066 C   0  0  0  0  0  0  0  0  0  0  0  0
   -0.4293   -1.8678   -2.1435 C   0  0  0  0  0  3  0  0  0  0  0  0
    0.3952   -2.1487   -0.8848 C   0  0  0  0  0  3  0  0  0  0  0  0
    1.4130   -1.0486   -0.6945 C   0  0  0  0  0  0  0  0  0  0  0  0
    2.6263   -1.5626    0.0511 C   0  0  2  0  0  0  0  0  0  0  0  0
    3.4407   -0.4401    0.6407 C   0  0  0  0  0  0  0  0  0  0  0  0
    3.4636   -2.3728   -0.9348 C   0  0  0  0  0  0  0  0  0  0  0  0
    3.2524   -3.8503   -0.6176 C   0  0  0  0  0  0  0  0  0  0  0  0
    3.1763   -4.5465   -1.8097 F   0  0  0  0  0  0  0  0  0  0  0  0
    4.4721   -4.3100    0.1552 C   0  0  0  0  0  0  0  0  0  0  0  0
    5.6818   -3.9833   -0.6896 C   0  0  0  0  0  0  0  0  0  0  0  0
    6.6357   -3.0521   -0.0057 C   0  0  0  0  0  0  0  0  0  0  0  0
    6.2647   -2.7702    1.2909 O   0  0  0  0  0  0  0  0  0  0  0  0
    6.8157   -1.7524   -0.7776 C   0  0  0  0  0  0  0  0  0  0  0  0
    8.2935   -1.5078   -0.9028 C   0  0  0  0  0  0  0  0  0  0  0  0
    8.6366   -0.0682   -1.1282 C   0  0  0  0  0  0  0  0  0  0  0  0
    8.1578    0.8058   -0.0077 C   0  0  0  0  0  0  0  0  0  0  0  0
    7.8335    2.0587   -0.5038 O   0  0  0  0  0  0  0  0  0  0  0  0
    7.0449    0.1896    0.7952 C   0  0  0  0  0  0  0  0  0  0  0  0
    6.1037   -0.6363   -0.0378 C   0  0  0  0  0  0  0  0  0  0  0  0
    5.2716    0.2143   -0.9507 C   0  0  0  0  0  0  0  0  0  0  0  0
    3.8865    0.4623   -0.4719 C   0  0  0  0  0  0  0  0  0  0  0  0
    3.5356    1.8993   -0.2716 C   0  0  0  0  0  0  0  0  0  0  0  0
    4.1488    2.5178    0.9448 C   0  0  0  0  0  0  0  0  0  0  0  0
    3.4838    3.8837    1.1438 C   0  0  0  0  0  0  0  0  0  0  0  0
    3.1040    4.4570   -0.2134 C   0  0  0  0  0  0  0  0  0  0  0  0
    2.8934    5.9468   -0.1376 C   0  0  0  0  0  0  0  0  0  0  0  0
    3.7552    6.6405   -0.9615 F   0  0  0  0  0  0  0  0  0  0  0  0
    3.1042    6.4802    1.2702 C   0  0  0  0  0  0  0  0  0  0  0  0
    1.4788    6.3446   -0.5373 C   0  0  0  0  0  0  0  0  0  0  0  0
    0.5775    5.1719   -0.3090 C   0  0  0  0  0  0  0  0  0  0  0  0
   -0.4577    5.4631    0.7744 C   0  0  0  0  0  0  0  0  0  0  0  0
   -1.4453    6.5235    0.3177 C   0  0  0  0  0  0  0  0  0  0  0  0
   -0.8641    7.9090    0.4325 C   0  0  0  0  0  0  0  0  0  0  0  0
   -1.8120    6.2393   -1.1354 C   0  0  0  0  0  0  0  0  0  0  0  0
   -2.6785    6.4000    1.1922 C   0  0  0  0  0  0  0  0  0  0  0  0
   -3.0175    4.9268    1.3565 C   0  0  0  0  0  0  0  0  0  0  0  0
   -3.8287    4.4903    0.1452 C   0  0  0  0  0  3  0  0  0  0  0  0
   -4.0055    2.9996    0.2058 C   0  0  0  0  0  0  0  0  0  0  0  0
   -4.7595    2.6268    1.4774 C   0  0  0  0  0  0  0  0  0  0  0  0
   -4.5021    3.6152    2.4097 F   0  0  0  0  0  0  0  0  0  0  0  0
   -6.2450    2.5672    1.2182 C   0  0  0  0  0  0  0  0  0  0  0  0
   -4.2132    1.2889    1.9581 C   0  0  0  0  0  0  0  0  0  0  0  0
   -4.8439    0.1946    1.1605 C   0  0  1  0  0  0  0  0  0  0  0  0
   -5.4543    0.6644   -0.1358 C   0  0  0  0  0  0  0  0  0  0  0  0
   -3.8910   -0.9766    0.9290 C   0  0  0  0  0  3  0  0  0  0  0  0
   -4.5214   -1.8310   -0.1094 C   0  0  0  0  0  0  0  0  0  0  0  0
   -3.8992   -2.6034   -0.9728 C   0  0  0  0  0  0  0  0  0  0  0  0
   -4.4669   -3.4481   -2.0207 C   0  0  0  0  0  0  0  0  0  0  0  0
   -5.8440   -3.7127   -2.1621 C   0  0  0  0  0  0  0  0  0  0  0  0
   -6.7384   -4.4646   -1.3310 C   0  0  0  0  0  0  0  0  0  0  0  0
   -8.0447   -4.3971   -1.8412 F   0  0  0  0  0  0  0  0  0  0  0  0
   -6.3420   -5.9861   -1.6140 C   0  0  0  0  0  0  0  0  0  0  0  0
   -6.7583   -4.3173    0.1388 C   0  0  0  0  0  0  0  0  0  0  0  0
   -5.4562   -4.7295    0.7484 C   0  0  0  0  0  0  0  0  0  0  0  0
   -7.8445   -4.9862    0.6673 F   0  0  0  0  0  0  0  0  0  0  0  0
  1  2  1  0
  2  3  1  0
  2  4  1  0
  4  5  1  0
  5  6  1  0
  6  7  1  0
  7  8  1  1
  7  9  1  0
  9 10  1  0
 10 11  1  0
 12 11  1  6
 12 13  1  0
 12 14  1  0
 14 15  1  0
 15 16  1  0
 15 17  1  0
 17 18  1  0
 18 19  1  0
 19 20  1  0
 19 21  1  0
 21 22  1  0
 22 23  1  0
 23 24  1  0
 24 25  1  0
 24 26  1  0
 26 27  1  0
 27 28  1  0
 28 29  1  0
 29 30  1  0
 30 31  1  0
 31 32  1  0
 32 33  1  0
 33 34  1  0
 34 35  1  0
 34 36  1  0
 34 37  1  0
 37 38  1  0
 38 39  1  0
 39 40  1  0
 40 41  1  0
 40 42  1  0
 40 43  1  0
 43 44  1  0
 44 45  1  0
 45 46  1  0
 46 47  1  0
 47 48  1  0
 47 49  1  0
 47 50  1  0
 50 51  1  0
 51 52  1  6
 51 53  1  0
 53 54  1  0
 54 55  2  3
 55 56  1  0
 56 57  1  0
 57 58  1  0
 58 59  1  0
 58 60  1  0
 58 61  1  0
 61 62  1  0
 61 63  1  0
 55  6  1  0
 29 13  1  0
 27 21  1  0
M  RAD  4   9   2  10   2  45   2  53   2
M  END
$$$$
