
     RDKit          3D

  9  8  0  0  0  0  0  0  0  0999 V2000
    4.1085    0.3842    0.5576 N   0  0  0  0  0  0  0  0  0  0  0  0
    2.9883    1.1119   -0.0179 C   0  0  0  0  0  0  0  0  0  0  0  0
    1.8724    0.2089   -0.3913 C   0  0  0  0  0  0  0  0  0  0  0  0
    0.6649    0.3019    0.1105 C   0  0  0  0  0  0  0  0  0  0  0  0
   -0.3238   -0.6517   -0.3503 C   0  0  0  0  0  0  0  0  0  0  0  0
   -1.5546   -0.7316    0.0132 C   0  0  0  0  0  0  0  0  0  0  0  0
   -2.1789    0.1739    0.9986 C   0  0  0  0  0  0  0  0  0  0  0  0
   -3.2385    0.8922    0.5121 O   0  0  0  0  0  0  0  0  0  0  0  0
   -2.3383   -1.6897   -0.5232 F   0  0  0  0  0  0  0  0  0  0  0  0
  1  2  1  0
  2  3  1  0
  3  4  2  3
  4  5  1  0
  5  6  2  3
  6  7  1  0
  7  8  1  0
  6  9  1  0
M  END
$$$$
