
     RDKit          3D

 18 17  0  0  0  0  0  0  0  0999 V2000
   -5.8550   -1.0351   -0.6530 C   0  0  0  0  0  0  0  0  0  0  0  0
   -5.2297    0.0708    0.1616 C   0  0  0  0  0  0  0  0  0  0  0  0
   -6.0624    1.3080   -0.0067 C   0  0  0  0  0  0  0  0  0  0  0  0
   -3.8526    0.3429   -0.2602 C   0  0  0  0  0  0  0  0  0  0  0  0
   -3.2935   -0.3223   -1.2399 C   0  0  0  0  0  0  0  0  0  0  0  0
   -1.9350   -0.0667   -1.6717 C   0  0  0  0  0  0  0  0  0  0  0  0
   -0.8057    0.1383   -2.0457 C   0  0  0  0  0  0  0  0  0  0  0  0
    0.5502    0.3833   -2.4985 C   0  0  0  0  0  0  0  0  0  0  0  0
    1.6044   -0.0127   -1.5034 C   0  0  0  0  0  0  0  0  0  0  0  0
    1.4242    0.7683   -0.2470 C   0  0  0  0  0  0  0  0  0  0  0  0
    0.0585    0.4813    0.3263 C   0  0  0  0  0  0  0  0  0  0  0  0
    1.5425    2.1401   -0.5686 O   0  0  0  0  0  0  0  0  0  0  0  0
    2.4696    0.5008    0.7250 N   0  0  0  0  0  0  0  0  0  0  0  0
    2.4563   -0.8864    1.1452 C   0  0  0  0  0  0  0  0  0  0  0  0
    3.5145   -1.2099    2.1378 C   0  0  2  0  0  0  0  0  0  0  0  0
    3.3193   -0.3545    3.3721 C   0  0  0  0  0  0  0  0  0  0  0  0
    4.8386   -1.0184    1.6753 N   0  0  0  0  0  0  0  0  0  0  0  0
    5.2557   -0.0386    1.1515 O   0  0  0  0  0  0  0  0  0  0  0  0
  1  2  1  0
  2  3  1  0
  2  4  1  0
  4  5  2  3
  5  6  1  0
  6  7  3  0
  7  8  1  0
  8  9  1  0
  9 10  1  0
 10 11  1  0
 10 12  1  0
 10 13  1  0
 13 14  1  0
 14 15  1  0
 15 16  1  1
 15 17  1  0
 17 18  2  0
M  END
$$$$
