
     RDKit          3D

 15 16  0  0  0  0  0  0  0  0999 V2000
   -0.4466   -1.2081   -1.8257 C   0  0  0  0  0  0  0  0  0  0  0  0
   -0.5079    0.2984   -1.7699 C   0  0  1  0  0  0  0  0  0  0  0  0
   -1.9631    0.7420   -1.7415 C   0  0  0  0  0  0  0  0  0  0  0  0
   -2.6625   -0.2115   -0.7840 C   0  0  2  0  0  0  0  0  0  0  0  0
   -3.8397    0.3837   -0.3977 O   0  0  0  0  0  0  0  0  0  0  0  0
   -1.8118   -0.5234    0.4100 C   0  0  2  0  0  0  0  0  0  0  0  0
   -2.5701   -0.6872    1.5516 O   0  0  0  0  0  0  0  0  0  0  0  0
   -0.7525    0.5128    0.6888 C   0  0  1  0  0  0  0  0  0  0  0  0
    0.0238    0.0337    1.7400 O   0  0  0  0  0  0  0  0  0  0  0  0
    0.1328    0.7857   -0.5062 C   0  0  1  0  0  0  0  0  0  0  0  0
    1.4513    0.1702   -0.3503 N   0  0  0  0  0  0  0  0  0  0  0  0
    2.1211    0.8650    0.7471 C   0  0  0  0  0  3  0  0  0  0  0  0
    3.2494   -0.0009    1.2613 C   0  0  0  0  0  0  0  0  0  0  0  0
    4.2737   -0.3579    0.1969 C   0  0  0  0  0  0  0  0  0  0  0  0
    3.3021   -1.3246    0.7797 O   0  0  0  0  0  0  0  0  0  0  0  0
  2  1  1  1
  2  3  1  0
  3  4  1  0
  4  5  1  1
  4  6  1  0
  6  7  1  1
  6  8  1  0
  8  9  1  1
  8 10  1  0
 10 11  1  1
 11 12  1  0
 12 13  1  0
 13 14  1  0
 13 15  1  0
 10  2  1  0
 15 14  1  0
M  RAD  1  12   2
M  END
$$$$
