
     RDKit          3D

 60 63  0  0  0  0  0  0  0  0999 V2000
  -11.3915    0.5000   -1.5418 C   0  0  0  0  0  0  0  0  0  0  0  0
  -10.8094    0.0716   -0.2051 C   0  0  0  0  0  3  0  0  0  0  0  0
   -9.4076   -0.4821   -0.3455 C   0  0  0  0  0  0  0  0  0  0  0  0
   -9.3744   -1.7050   -1.2581 C   0  0  2  0  0  0  0  0  0  0  0  0
   -9.9146   -1.3885   -2.4803 O   0  0  0  0  0  0  0  0  0  0  0  0
  -10.1776   -2.7927   -0.6198 C   0  0  0  0  0  0  0  0  0  0  0  0
   -9.6100   -3.3284    0.6560 C   0  0  0  0  0  0  0  0  0  0  0  0
   -8.2439   -3.2288    0.7755 O   0  0  0  0  0  0  0  0  0  0  0  0
   -7.8172   -1.8970    0.8711 C   0  0  1  0  0  0  0  0  0  0  0  0
   -7.0179   -1.6572   -0.2346 O   0  0  0  0  0  0  0  0  0  0  0  0
   -8.9573   -0.9498    1.0049 C   0  0  1  0  0  0  0  0  0  0  0  0
   -8.7489    0.1413    1.8872 N   0  0  0  0  0  0  0  0  0  0  0  0
   -7.7337    1.0206    1.4298 C   0  0  0  0  0  0  0  0  0  0  0  0
   -8.0637    1.8104    0.1944 C   0  0  0  0  0  0  0  0  0  0  0  0
   -6.8806    2.7053   -0.1105 C   0  0  1  0  0  0  0  0  0  0  0  0
   -7.1644    3.5324   -1.3517 C   0  0  0  0  0  2  0  0  0  0  0  0
   -6.7631    3.6790    1.0518 C   0  0  0  0  0  0  0  0  0  0  0  0
   -8.0105    4.5104    1.2053 C   0  0  0  0  0  2  0  0  0  0  0  0
   -5.6684    1.8543   -0.2579 C   0  0  1  0  0  0  0  0  0  0  0  0
   -5.7722    0.9426   -1.2709 O   0  0  0  0  0  0  0  0  0  0  0  0
   -4.3586    2.5944   -0.2181 C   0  0  0  0  0  0  0  0  0  0  0  0
   -4.1657    3.3337    1.0869 C   0  0  0  0  0  0  0  0  0  0  0  0
   -3.2747    1.5058   -0.2449 C   0  0  1  0  0  0  0  0  0  0  0  0
   -1.8973    2.0781   -0.2085 C   0  0  0  0  0  3  0  0  0  0  0  0
   -1.4856    2.0320    1.2393 C   0  0  0  0  0  0  0  0  0  0  0  0
   -2.4306    1.1211    1.9467 C   0  0  0  0  0  0  0  0  0  0  0  0
   -3.4880    0.6822    0.9896 C   0  0  0  0  0  0  0  0  0  0  0  0
   -3.3808   -0.7850    0.6104 C   0  0  0  0  0  0  0  0  0  0  0  0
   -3.5858   -1.5172    1.7781 O   0  0  0  0  0  0  0  0  0  0  0  0
   -2.3850   -1.5016    2.4756 C   0  0  0  0  0  0  0  0  0  0  0  0
   -1.3957   -1.0801    1.6211 O   0  0  0  0  0  0  0  0  0  0  0  0
   -1.9184   -1.0538    0.3277 C   0  0  1  0  0  0  0  0  0  0  0  0
   -1.7295   -2.3751   -0.3860 C   0  0  0  0  0  0  0  0  0  0  0  0
   -0.3777   -2.6404   -0.4567 O   0  0  0  0  0  0  0  0  0  0  0  0
    0.3379   -1.6841   -1.1383 C   0  0  0  0  0  0  0  0  0  0  0  0
    0.2187   -0.4165   -0.5316 O   0  0  0  0  0  0  0  0  0  0  0  0
    0.9518    0.5323   -1.2348 C   0  0  0  0  0  3  0  0  0  0  0  0
    2.3038    0.3907   -0.8807 O   0  0  0  0  0  0  0  0  0  0  0  0
    2.4779   -0.9098   -0.4580 C   0  0  0  0  0  3  0  0  0  0  0  0
    3.2886   -1.0421    0.8119 C   0  0  0  0  0  0  0  0  0  0  0  0
    4.7401   -1.1844    0.4172 C   0  0  0  0  0  0  0  0  0  0  0  0
    5.1434    0.0189   -0.3327 C   0  0  0  0  0  0  0  0  0  0  0  0
    5.5794   -0.0051   -1.5877 C   0  0  0  0  0  0  0  0  0  0  0  0
    5.6996   -1.2657   -2.3568 C   0  0  0  0  0  0  0  0  0  0  0  0
    7.1112   -1.5509   -2.8112 C   0  0  0  0  0  0  0  0  0  0  0  0
    8.0613   -1.6759   -1.6032 C   0  0  1  0  0  0  0  0  0  0  0  0
    9.4219   -1.9569   -2.1376 C   0  0  0  0  0  0  0  0  0  0  0  0
   10.4042   -2.1113   -1.1889 F   0  0  0  0  0  0  0  0  0  0  0  0
    7.9617   -0.4346   -0.7678 C   0  0  0  0  0  0  0  0  0  0  0  0
    8.8765   -0.5242    0.4192 C   0  0  0  0  0  3  0  0  0  0  0  0
   10.0951    0.0603    0.0852 O   0  0  0  0  0  0  0  0  0  0  0  0
   10.9023   -0.0696    1.2385 C   0  0  0  0  0  0  0  0  0  0  0  0
   12.2023    0.4926    1.0373 N   0  0  0  0  0  4  0  0  0  0  0  0
   12.2506    1.8178    1.6301 C   0  0  0  0  0  0  0  0  0  0  0  0
   13.6938    2.2850    1.7230 C   0  0  0  0  0  2  0  0  0  0  0  0
   12.4255    0.8241   -0.3766 C   0  0  0  0  0  0  0  0  0  0  0  0
   11.5187    1.8770   -0.5827 O   0  0  0  0  0  0  0  0  0  0  0  0
   11.5322    2.6425    0.5697 C   0  0  0  0  0  3  0  0  0  0  0  0
   13.1982   -0.2990    1.4986 O   0  0  0  0  0  0  0  0  0  0  0  0
   13.0036   -1.5434    0.9993 N   0  0  0  0  0  0  0  0  0  0  0  0
  1  2  1  0
  2  3  1  0
  3  4  1  0
  4  5  1  6
  4  6  1  0
  6  7  1  0
  7  8  1  0
  8  9  1  0
  9 10  1  6
  9 11  1  0
 11 12  1  1
 12 13  1  0
 13 14  1  0
 14 15  1  0
 15 16  1  6
 15 17  1  0
 17 18  1  0
 15 19  1  0
 19 20  1  6
 19 21  1  0
 21 22  1  0
 23 21  1  1
 23 24  1  0
 24 25  1  0
 25 26  1  0
 26 27  1  0
 27 28  1  0
 28 29  1  0
 29 30  1  0
 30 31  1  0
 31 32  1  0
 32 33  1  1
 33 34  1  0
 34 35  1  0
 35 36  1  0
 36 37  1  0
 37 38  1  0
 38 39  1  0
 39 40  1  0
 40 41  1  0
 41 42  1  0
 42 43  2  3
 43 44  1  0
 44 45  1  0
 46 45  1  6
 46 47  1  0
 47 48  1  0
 46 49  1  0
 49 50  1  0
 50 51  1  0
 51 52  1  0
 52 53  1  0
 53 54  1  0
 54 55  1  0
 53 56  1  0
 56 57  1  0
 57 58  1  0
 53 59  1  0
 59 60  1  0
 11  3  1  0
 27 23  1  0
 32 28  1  0
 58 54  1  0
M  RAD  8   2   2  16   3  18   3  24   2  37   2  39   2  50   2  55   3
M  CHG  1  53   1
M  RAD  1  58   2
M  END
$$$$
