
     RDKit          3D

 15 16  0  0  0  0  0  0  0  0999 V2000
   -0.1843    2.6068    1.2619 C   0  0  0  0  0  0  0  0  0  0  0  0
   -1.0997    1.4899    0.7815 C   0  0  1  0  0  0  0  0  0  0  0  0
   -1.1111    1.5290   -0.7407 C   0  0  0  0  0  0  0  0  0  0  0  0
   -1.7439    0.3304   -1.3622 C   0  0  2  0  0  0  0  0  0  0  0  0
   -3.1098    0.4962   -1.3561 O   0  0  0  0  0  0  0  0  0  0  0  0
   -1.2717   -0.9764   -0.7995 C   0  0  2  0  0  0  0  0  0  0  0  0
   -1.9519   -2.0355   -1.3401 O   0  0  0  0  0  0  0  0  0  0  0  0
   -1.3723   -0.9162    0.7102 C   0  0  1  0  0  0  0  0  0  0  0  0
   -1.1055   -2.1256    1.3205 O   0  0  0  0  0  0  0  0  0  0  0  0
   -0.4011    0.1785    1.1458 C   0  0  1  0  0  0  0  0  0  0  0  0
    0.7282    0.0965    0.2188 N   0  0  0  0  0  0  0  0  0  0  0  0
    1.8604   -0.5860    0.7905 C   0  0  0  0  0  3  0  0  0  0  0  0
    2.9519   -0.5258   -0.2734 C   0  0  0  0  0  0  0  0  0  0  0  0
    4.2915   -0.4028   -0.1368 C   0  0  0  0  0  0  0  0  0  0  0  0
    3.5194    0.8409   -0.2203 O   0  0  0  0  0  0  0  0  0  0  0  0
  2  1  1  1
  2  3  1  0
  3  4  1  0
  4  5  1  1
  4  6  1  0
  6  7  1  6
  6  8  1  0
  8  9  1  1
  8 10  1  0
 10 11  1  6
 11 12  1  0
 12 13  1  0
 13 14  1  0
 13 15  1  0
 10  2  1  0
 15 14  1  0
M  RAD  1  12   2
M  END
$$$$
