
     RDKit          3D

 24 25  0  0  0  0  0  0  0  0999 V2000
    5.9264   -1.1084    0.2570 C   0  0  0  0  0  0  0  0  0  0  0  0
    6.0896    0.2294   -0.4642 C   0  0  0  0  0  0  0  0  0  0  0  0
    6.4157   -0.0101   -1.9314 C   0  0  0  0  0  0  0  0  0  0  0  0
    4.7896    0.9827   -0.3227 C   0  0  0  0  0  0  0  0  0  0  0  0
    4.5195    1.1906    1.1486 C   0  0  0  0  0  0  0  0  0  0  0  0
    3.2232    1.9441    1.3565 C   0  0  0  0  0  0  0  0  0  0  0  0
    2.0552    1.1227    0.7367 C   0  0  1  0  0  0  0  0  0  0  0  0
    2.4111    0.9903   -0.7637 C   0  0  0  0  0  0  0  0  0  0  0  0
    2.0555   -0.2504    1.3088 C   0  0  0  0  0  3  0  0  0  0  0  0
    0.9806   -1.1650    1.0178 C   0  0  0  0  0  0  0  0  0  0  0  0
    0.6164   -1.5820   -0.3294 C   0  0  0  0  0  0  0  0  0  0  0  0
    0.1543   -0.5242   -1.2664 C   0  0  0  0  0  3  0  0  0  0  0  0
   -1.0619    0.2024   -0.8081 C   0  0  0  0  0  3  0  0  0  0  0  0
   -2.3296   -0.2015   -1.4632 C   0  0  0  0  0  0  0  0  0  0  0  0
   -2.8830   -1.5107   -1.0600 C   0  0  0  0  0  0  0  0  0  0  0  0
   -3.8317   -2.0736   -2.0762 C   0  0  0  0  0  0  0  0  0  0  0  0
   -3.3536   -1.6399    0.3265 C   0  0  0  0  0  0  0  0  0  0  0  0
   -3.7014   -0.4199    1.0550 C   0  0  0  0  0  0  0  0  0  0  0  0
   -5.1547    0.0096    1.0612 C   0  0  2  0  0  0  0  0  0  0  0  0
   -5.7125   -0.2659   -0.1956 O   0  0  0  0  0  0  0  0  0  0  0  0
   -4.6184    1.4503    1.0245 C   0  0  0  0  0  0  0  0  0  0  0  0
   -3.3932    0.8725    0.3750 C   0  0  1  0  0  0  0  0  0  0  0  0
   -2.0744    1.3782    0.8595 C   0  0  0  0  0  0  0  0  0  0  0  0
   -1.1231    0.3787    0.5477 O   0  0  0  0  0  0  0  0  0  0  0  0
  1  2  1  0
  2  3  1  0
  2  4  1  0
  4  5  1  0
  5  6  1  0
  6  7  1  0
  7  8  1  6
  7  9  1  0
  9 10  1  0
 10 11  1  0
 11 12  1  0
 12 13  1  0
 13 14  1  0
 14 15  1  0
 15 16  1  0
 15 17  1  0
 17 18  1  0
 18 19  1  0
 19 20  1  6
 19 21  1  0
 22 21  1  1
 22 23  1  0
 23 24  1  0
 24 13  1  0
 22 18  1  0
M  RAD  3   9   2  12   2  13   2
M  END
$$$$
