
     RDKit          3D

 26 28  0  0  0  0  0  0  0  0999 V2000
    0.0032   -4.1382    0.8687 O   0  0  0  0  0  0  0  0  0  0  0  0
    0.0655   -3.0660    0.2055 C   0  0  0  0  0  0  0  0  0  0  0  0
   -1.1632   -2.3735   -0.0034 N   0  0  0  0  0  0  0  0  0  0  0  0
   -1.4165   -1.5177   -1.1092 C   0  0  0  0  0  0  0  0  0  0  0  0
   -2.4504   -0.4816   -0.8808 C   0  0  0  0  0  0  0  0  0  0  0  0
   -3.5913   -0.4751   -1.7058 C   0  0  0  0  0  0  0  0  0  0  0  0
   -4.5891    0.4637   -1.5820 C   0  0  0  0  0  0  0  0  0  0  0  0
   -4.4969    1.4494   -0.6216 C   0  0  0  0  0  0  0  0  0  0  0  0
   -5.7290    2.6741   -0.4103 Cl  0  0  0  0  0  0  0  0  0  0  0  0
   -3.3998    1.4772    0.2035 C   0  0  0  0  0  0  0  0  0  0  0  0
   -2.3841    0.5112    0.0687 C   0  0  0  0  0  0  0  0  0  0  0  0
    1.3344   -2.6052   -0.2951 C   0  0  0  0  0  0  0  0  0  0  0  0
    1.8811   -1.4093   -0.0596 C   0  0  0  0  0  0  0  0  0  0  0  0
    1.2613   -0.4196    0.7357 N   0  0  0  0  0  0  0  0  0  0  0  0
    0.5637   -0.7839    1.9877 C   0  0  0  0  0  0  0  0  0  0  0  0
   -0.8601   -0.3186    1.8170 C   0  0  0  0  0  0  0  0  0  0  0  0
   -1.2791    0.6653    1.0280 C   0  0  0  0  0  0  0  0  0  0  0  0
   -0.7140    2.0625    0.9940 C   0  0  0  0  0  0  0  0  0  0  0  0
    0.6818    1.9851    0.4232 C   0  0  0  0  0  0  0  0  0  0  0  0
    1.4065    0.8764    0.1706 C   0  0  0  0  0  0  0  0  0  0  0  0
    2.5089    0.9846   -0.8197 C   0  0  0  0  0  0  0  0  0  0  0  0
    2.5307    2.6800   -1.4138 Cl  0  0  0  0  0  0  0  0  0  0  0  0
    3.7048    0.8369   -0.0811 O   0  0  0  0  0  0  0  0  0  0  0  0
    4.8240    0.9147   -0.8665 C   0  0  0  0  0  0  0  0  0  0  0  0
    4.8969   -0.1303   -1.9463 C   0  0  0  0  0  0  0  0  0  0  0  0
    6.4108    0.1381   -2.8490 Cl  0  0  0  0  0  0  0  0  0  0  0  0
  1  2  2  0
  2  3  1  0
  3  4  1  0
  4  5  1  0
  5  6  2  0
  6  7  1  0
  7  8  2  0
  8  9  1  0
  8 10  1  0
 10 11  2  0
  2 12  1  0
 12 13  2  3
 13 14  1  0
 14 15  1  0
 15 16  1  0
 16 17  2  0
 17 18  1  0
 18 19  1  0
 19 20  2  0
 20 21  1  0
 21 22  1  0
 21 23  1  0
 23 24  1  0
 24 25  1  0
 25 26  1  0
 11  5  1  0
 17 11  1  0
 20 14  1  0
M  END
$$$$
