
     RDKit          3D

 32 35  0  0  0  0  0  0  0  0999 V2000
    0.3530   -0.1660    0.0726 C   0  0  0  0  0  0  0  0  0  0  0  0
   -1.0048   -0.9290   -0.1178 C   0  0  0  0  0  0  0  0  0  0  0  0
   -0.7147   -1.1583   -1.4414 C   0  0  0  0  0  0  0  0  0  0  0  0
   -1.4614    0.0206    0.9706 C   0  0  0  0  0  0  0  0  0  0  0  0
   -2.5736   -0.2398    1.7702 C   0  0  0  0  0  0  0  0  0  0  0  0
   -2.9291   -1.5504    1.1588 C   0  0  0  0  0  0  0  0  0  0  0  0
   -3.0957   -1.4766   -0.2071 C   0  0  0  0  0  0  0  0  0  0  0  0
   -3.4236   -2.8941   -0.7631 C   0  0  0  0  0  0  0  0  0  0  0  0
   -2.2500   -3.7736   -0.0649 C   0  0  0  0  0  0  0  0  0  0  0  0
   -0.9704   -3.1951    0.1576 C   0  0  0  0  0  0  0  0  0  0  0  0
   -0.2477   -2.5020    1.1510 C   0  0  0  0  0  3  0  0  0  0  0  0
    0.6165   -1.2269    0.9860 C   0  0  2  0  0  0  0  0  0  0  0  0
    0.8749   -0.7345    2.3949 C   0  0  0  0  0  0  0  0  0  0  0  0
    2.2876   -0.1340    2.3472 C   0  0  0  0  0  0  0  0  0  0  0  0
    3.0999   -0.8406    1.2488 C   0  0  0  0  0  3  0  0  0  0  0  0
    3.5347    0.1829    0.2605 C   0  0  2  0  0  0  0  0  0  0  0  0
    3.9854    1.4042    1.0495 C   0  0  0  0  0  2  0  0  0  0  0  0
    2.4643    0.6493   -0.6894 C   0  0  0  0  0  0  0  0  0  0  0  0
    1.4217   -0.3695   -0.9797 C   0  0  1  0  0  0  0  0  0  0  0  0
    1.9237   -1.7488   -1.0525 C   0  0  0  0  0  0  0  0  0  0  0  0
    3.1925   -2.1158   -0.9009 C   0  0  0  0  0  0  0  0  0  0  0  0
    4.4630   -1.4280   -1.1336 C   0  0  0  0  0  3  0  0  0  0  0  0
    4.6189   -0.2193   -0.5109 O   0  0  0  0  0  0  0  0  0  0  0  0
   -2.9474   -0.1647   -0.7434 C   0  0  0  0  0  0  0  0  0  0  0  0
   -1.8794    0.7338   -0.9793 C   0  0  0  0  0  0  0  0  0  0  0  0
   -1.9065    1.2788   -2.3893 C   0  0  0  0  0  0  0  0  0  0  0  0
   -0.4531    0.9101   -0.4902 C   0  0  0  0  0  0  0  0  0  0  0  0
   -0.2808    2.2574    0.0879 C   0  0  0  0  0  0  0  0  0  0  0  0
   -1.1544    3.2835   -0.5602 C   0  0  0  0  0  0  0  0  0  0  0  0
   -0.9111    4.6117    0.0841 C   0  0  0  0  0  0  0  0  0  0  0  0
   -1.7369    5.7029   -0.4965 C   0  0  0  0  0  0  0  0  0  0  0  0
   -2.8953    5.8317   -0.2193 O   0  0  0  0  0  0  0  0  0  0  0  0
  1  2  1  0
  2  3  1  0
  2  4  1  0
  4  5  2  3
  5  6  1  0
  6  7  2  3
  7  8  1  0
  8  9  1  0
  9 10  1  0
 10 11  1  0
 12 11  1  1
 12 13  1  0
 13 14  1  0
 14 15  1  0
 15 16  1  0
 16 17  1  1
 16 18  1  0
 18 19  1  0
 19 20  1  1
 20 21  2  0
 21 22  1  0
 22 23  1  0
  7 24  1  0
 24 25  1  0
 25 26  1  0
 25 27  1  0
 27 28  1  0
 28 29  1  0
 29 30  1  0
 30 31  1  0
 31 32  2  0
 12  1  1  0
 19  1  1  0
 27  1  1  0
 23 16  1  0
M  RAD  4  11   2  15   2  17   3  22   2
M  END
$$$$
