
     RDKit          3D

 12 12  0  0  0  0  0  0  0  0999 V2000
    2.3194   -0.1401   -1.3390 O   0  0  0  0  0  0  0  0  0  0  0  0
    2.9724    0.2470   -0.3301 C   0  0  0  0  0  0  0  0  0  0  0  0
    4.3453    0.3629   -0.4904 O   0  0  0  0  0  0  0  0  0  0  0  0
    2.3440    0.5622    0.9466 C   0  0  0  0  0  0  0  0  0  0  0  0
    1.0594    0.4731    1.1598 C   0  0  0  0  0  0  0  0  0  0  0  0
    0.1811    0.0351    0.0730 C   0  0  0  0  0  0  0  0  0  0  0  0
   -1.1131   -0.0435    0.3241 C   0  0  0  0  0  0  0  0  0  0  0  0
   -1.8078    0.2384    1.5182 O   0  0  0  0  0  0  0  0  0  0  0  0
   -3.1337   -0.0164    1.2057 N   0  0  0  0  0  0  0  0  0  0  0  0
   -3.2345   -0.4042   -0.0222 C   0  0  0  0  0  0  0  0  0  0  0  0
   -2.1029   -0.4610   -0.6520 C   0  0  0  0  0  0  0  0  0  0  0  0
   -1.8295   -0.8536   -2.0424 C   0  0  0  0  0  0  0  0  0  0  0  0
  1  2  2  0
  2  3  1  0
  2  4  1  0
  4  5  2  3
  5  6  1  0
  6  7  2  3
  7  8  1  0
  8  9  1  0
  9 10  2  0
 10 11  2  0
 11 12  1  0
 11  7  1  0
M  END
$$$$
