
     RDKit          3D

 15 15  0  0  0  0  0  0  0  0999 V2000
    4.6576    2.1900    0.1362 C   0  0  0  0  0  0  0  0  0  0  0  0
    3.4006    1.5142   -0.0642 O   0  0  0  0  0  0  0  0  0  0  0  0
    3.6979    0.2407   -0.4268 C   0  0  0  0  0  3  0  0  0  0  0  0
    2.6766   -0.4504   -0.9468 O   0  0  0  0  0  0  0  0  0  0  0  0
    1.6696   -0.6851    0.0123 C   0  0  2  0  0  0  0  0  0  0  0  0
    1.6266   -2.2306    0.1636 C   0  0  0  0  0  0  0  0  0  0  0  0
    0.2935   -0.3253   -0.5973 C   0  0  0  0  0  3  0  0  0  0  0  0
   -0.7873   -0.7893    0.4210 C   0  0  1  0  0  0  0  0  0  0  0  0
   -2.0890   -0.3192   -0.2381 C   0  0  0  0  0  3  0  0  0  0  0  0
   -2.9279    0.4078    0.7914 C   0  0  0  0  0  0  0  0  0  0  0  0
   -3.6092    1.5719    0.1327 C   0  0  0  0  0  0  0  0  0  0  0  0
   -2.7963    2.4082   -0.5489 O   0  0  0  0  0  0  0  0  0  0  0  0
   -3.6801    1.5613   -1.2411 O   0  0  0  0  0  0  0  0  0  0  0  0
   -0.8258   -2.2551    0.5885 C   0  0  0  0  0  0  0  0  0  0  0  0
   -1.3068   -2.8391   -0.5613 O   0  0  0  0  0  0  0  0  0  0  0  0
  1  2  1  0
  2  3  1  0
  3  4  1  0
  4  5  1  0
  5  6  1  6
  5  7  1  0
  8  7  1  6
  8  9  1  0
  9 10  1  0
 10 11  1  0
 11 12  1  0
 11 13  1  0
  8 14  1  0
 14 15  1  0
 13 12  1  0
M  RAD  3   3   2   7   2   9   2
M  END
$$$$
