
     RDKit          3D

 28 27  0  0  0  0  0  0  0  0999 V2000
   -7.4444    4.4256   -1.1539 C   0  0  0  0  0  0  0  0  0  0  0  0
   -7.1152    3.2440   -1.7012 C   0  0  0  0  0  0  0  0  0  0  0  0
   -6.5241    2.2659   -0.8296 C   0  0  0  0  0  0  0  0  0  0  0  0
   -6.1464    1.0697   -1.1989 C   0  0  0  0  0  0  0  0  0  0  0  0
   -5.5559    0.1470   -0.2403 C   0  0  0  0  0  0  0  0  0  0  0  0
   -5.1579   -1.0632   -0.5479 C   0  0  0  0  0  0  0  0  0  0  0  0
   -4.5963   -1.8726    0.4745 N   0  0  0  0  0  0  0  0  0  0  0  0
   -5.2405   -3.1367    0.8003 C   0  0  0  0  0  0  0  0  0  0  0  0
   -3.4418   -1.4319    1.1378 C   0  0  0  0  0  0  0  0  0  0  0  0
   -2.9569   -2.1738    2.0500 O   0  0  0  0  0  0  0  0  0  0  0  0
   -2.8175   -0.1359    0.7736 C   0  0  0  0  0  0  0  0  0  0  0  0
   -1.6660    0.0502    1.6083 N   0  0  0  0  0  0  0  0  0  0  0  0
   -1.7819    0.7171    2.8695 C   0  0  0  0  0  0  0  0  0  0  0  0
   -0.3929   -0.4424    1.1612 C   0  0  0  0  0  0  0  0  0  0  0  0
    0.6017   -0.2696    1.9062 O   0  0  0  0  0  0  0  0  0  0  0  0
   -0.2102   -1.0942   -0.0434 N   0  0  0  0  0  0  0  0  0  0  0  0
    0.8829   -1.6531   -0.6959 C   0  0  0  0  0  0  0  0  0  0  0  0
    1.9291   -0.7567   -0.9965 N   0  0  0  0  0  0  0  0  0  0  0  0
    1.8277   -0.0187   -2.2717 C   0  0  0  0  0  0  0  0  0  0  0  0
    3.0337   -0.5472   -0.1488 C   0  0  0  0  0  0  0  0  0  0  0  0
    3.2172   -1.1653    0.9230 O   0  0  0  0  0  0  0  0  0  0  0  0
    4.0469    0.4301   -0.4906 N   0  0  0  0  0  0  0  0  0  0  0  0
    5.1589    0.6362    0.3696 C   0  0  0  0  0  0  0  0  0  0  0  0
    6.4181    0.4490   -0.0200 C   0  0  0  0  0  0  0  0  0  0  0  0
    7.4543    0.6987    0.9683 C   0  0  0  0  0  0  0  0  0  0  0  0
    8.7109    0.5290    0.6352 C   0  0  0  0  0  0  0  0  0  0  0  0
    9.0327    0.1167   -0.6457 O   0  0  0  0  0  0  0  0  0  0  0  0
    8.7335    0.9822   -1.7285 C   0  0  0  0  0  0  0  0  0  0  0  0
  1  2  2  0
  2  3  1  0
  3  4  2  3
  4  5  1  0
  5  6  2  3
  6  7  1  0
  7  8  1  0
  7  9  1  0
  9 10  2  0
  9 11  1  0
 11 12  1  0
 12 13  1  0
 12 14  1  0
 14 15  2  0
 14 16  1  0
 16 17  1  0
 17 18  1  0
 18 19  1  0
 18 20  1  0
 20 21  2  0
 20 22  1  0
 22 23  1  0
 23 24  2  3
 24 25  1  0
 25 26  2  3
 26 27  1  0
 27 28  1  0
M  END
$$$$
