
     RDKit          3D

 22 24  0  0  0  0  0  0  0  0999 V2000
    0.6743    1.5846   -1.6705 C   0  0  0  0  0  0  0  0  0  0  0  0
   -0.2410    2.7416   -1.5178 C   0  0  1  0  0  0  0  0  0  0  0  0
   -0.5506    3.2679   -2.8397 N   0  0  0  0  0  2  0  0  0  0  0  0
   -1.5005    2.2306   -0.8287 C   0  0  0  0  0  3  0  0  0  0  0  0
   -1.0619    1.3468    0.3005 C   0  0  0  0  0  0  0  0  0  0  0  0
   -2.0933    0.3542    0.6949 C   0  0  0  0  0  0  0  0  0  0  0  0
   -1.8759   -1.0104    0.6798 C   0  0  0  0  0  0  0  0  0  0  0  0
   -2.9375   -1.8044    1.0760 C   0  0  0  0  0  0  0  0  0  0  0  0
   -4.1527   -1.3114    1.4688 C   0  0  0  0  0  0  0  0  0  0  0  0
   -5.1329   -2.2231    1.8423 O   0  0  0  0  0  0  0  0  0  0  0  0
   -4.3616    0.0396    1.4816 C   0  0  0  0  0  0  0  0  0  0  0  0
   -3.3124    0.8758    1.0878 C   0  0  0  0  0  0  0  0  0  0  0  0
    1.8168    1.5938   -0.9689 C   0  0  0  0  0  0  0  0  0  0  0  0
    2.7122    0.4272   -1.1396 C   0  0  0  0  0  0  0  0  0  0  0  0
    4.1159    0.6604   -0.7584 C   0  0  0  0  0  3  0  0  0  0  0  0
    4.7163   -0.3117    0.1480 C   0  0  0  0  0  0  0  0  0  0  0  0
    4.0426   -1.3457    0.6047 C   0  0  0  0  0  0  0  0  0  0  0  0
    4.7338   -2.2105    1.4718 O   0  0  0  0  0  0  0  0  0  0  0  0
    2.6604   -1.5793    0.2322 C   0  0  0  0  0  0  0  0  0  0  0  0
    2.0427   -0.7535   -0.5795 C   0  0  0  0  0  0  0  0  0  0  0  0
    0.3323   -1.0095   -1.0634 S   0  0  0  0  0  0  0  0  0  0  0  0
   -0.6271   -1.5630    0.2781 N   0  0  0  0  0  0  0  0  0  0  0  0
  1  2  1  0
  2  3  1  6
  2  4  1  0
  4  5  1  0
  5  6  1  0
  6  7  2  0
  7  8  1  0
  8  9  2  0
  9 10  1  0
  9 11  1  0
 11 12  2  0
  1 13  2  3
 13 14  1  0
 14 15  1  0
 15 16  1  0
 16 17  2  0
 17 18  1  0
 17 19  1  0
 19 20  2  0
 20 21  1  0
 21 22  1  0
 12  6  1  0
 22  7  1  0
 20 14  1  0
M  RAD  3   3   2   4   2  15   2
M  END
$$$$
