
     RDKit          3D

 11 10  0  0  0  0  0  0  0  0999 V2000
   -4.5002    0.6150    1.2833 C   0  0  0  0  0  0  0  0  0  0  0  0
   -3.1123    0.7624    1.0937 O   0  0  0  0  0  0  0  0  0  0  0  0
   -2.3776   -0.2903    0.5740 C   0  0  0  0  0  0  0  0  0  0  0  0
   -2.9706   -1.3530    0.2876 O   0  0  0  0  0  0  0  0  0  0  0  0
   -0.9309   -0.1341    0.3721 C   0  0  0  0  0  0  0  0  0  0  0  0
   -0.6488   -0.4188   -1.0887 C   0  0  0  0  0  0  0  0  0  0  0  0
    0.8038   -0.2693   -1.3249 C   0  0  0  0  0  0  0  0  0  0  0  0
    1.6143    0.0066   -0.3227 C   0  0  0  0  0  0  0  0  0  0  0  0
    3.0314    0.1335   -0.6426 C   0  0  0  0  0  0  0  0  0  0  0  0
    3.8670    0.3993    0.3487 C   0  0  0  0  0  0  0  0  0  0  0  0
    5.2240    0.5488    0.2147 O   0  0  0  0  0  1  0  0  0  0  0  0
  1  2  1  0
  2  3  1  0
  3  4  2  0
  3  5  1  0
  5  6  1  0
  6  7  1  0
  7  8  2  3
  8  9  1  0
  9 10  2  3
 10 11  1  0
M  CHG  1  11  -1
M  END
$$$$
