
     RDKit          3D

 17 17  0  0  0  0  0  0  0  0999 V2000
    4.5751   -1.9012    0.7975 C   0  0  0  0  0  0  0  0  0  0  0  0
    3.4316   -2.5452    1.2670 O   0  0  0  0  0  0  0  0  0  0  0  0
    2.1661   -1.9555    1.0935 C   0  0  0  0  0  0  0  0  0  0  0  0
    1.0695   -2.1608    1.7810 C   0  0  0  0  0  0  0  0  0  0  0  0
   -0.0279   -1.3518    1.2823 C   0  0  0  0  0  0  0  0  0  0  0  0
    0.4343   -0.6463    0.2684 C   0  0  0  0  0  0  0  0  0  0  0  0
   -0.3102    0.3296   -0.5693 C   0  0  0  0  0  0  0  0  0  0  0  0
   -1.7920    0.3329   -0.2525 C   0  0  0  0  0  0  0  0  0  0  0  0
   -2.2906   -1.0887   -0.5354 C   0  0  0  0  0  0  0  0  0  0  0  0
   -2.0023   -1.3282   -1.9939 C   0  0  0  0  0  0  0  0  0  0  0  0
   -3.0618   -1.5957   -2.7685 C   0  0  0  0  0  0  0  0  0  0  0  0
    0.2778    1.6689   -0.5037 C   0  0  0  0  0  0  0  0  0  0  0  0
   -0.3846    2.7745   -0.2044 C   0  0  0  0  0  0  0  0  0  0  0  0
    0.3796    4.0481   -0.1858 C   0  0  0  0  0  0  0  0  0  0  0  0
   -1.8098    2.7018    0.0894 C   0  0  0  0  0  0  0  0  0  0  0  0
   -2.5125    3.6783    0.3788 O   0  0  0  0  0  0  0  0  0  0  0  0
    1.8579   -0.9607    0.0556 C   0  0  0  0  0  0  0  0  0  0  0  0
  1  2  1  0
  2  3  1  0
  3  4  2  0
  4  5  1  0
  5  6  2  0
  6  7  1  0
  7  8  1  0
  8  9  1  0
  9 10  1  0
 10 11  2  0
  7 12  1  0
 12 13  2  3
 13 14  1  0
 13 15  1  0
 15 16  2  0
  6 17  1  0
 17  3  1  0
M  END
$$$$
