
     RDKit          3D

 17 17  0  0  0  0  0  0  0  0999 V2000
   -5.8048    1.3928   -0.1106 O   0  0  0  0  0  0  0  0  0  0  0  0
   -4.9674    0.5289    0.0994 C   0  0  0  0  0  0  0  0  0  0  0  0
   -3.6965    0.4919   -0.6772 C   0  0  0  0  0  0  0  0  0  0  0  0
   -2.8609   -0.6666   -0.2284 C   0  0  0  0  0  0  0  0  0  0  0  0
   -2.5665   -0.4759    1.2506 C   0  0  0  0  0  0  0  0  0  0  0  0
   -1.7182   -1.6587    1.6944 C   0  0  0  0  0  0  0  0  0  0  0  0
   -0.5032   -1.6493    0.9061 N   0  0  0  0  0  0  0  0  0  0  0  0
   -0.8039   -1.9601   -0.4658 C   0  0  0  0  0  3  0  0  0  0  0  0
   -1.4888   -3.3281   -0.4645 C   0  0  0  0  0  0  0  0  0  0  0  0
    0.2649   -0.0870    1.1139 S   0  0  0  0  0  0  0  0  0  0  0  0
    1.1125    0.4779   -0.3017 N   0  0  0  0  0  0  0  0  0  0  0  0
    2.4845    0.8257   -0.2297 C   0  0  0  0  0  0  0  0  0  0  0  0
    3.1989    1.2678   -1.3189 C   0  0  0  0  0  0  0  0  0  0  0  0
    4.5305    1.5893   -1.1861 C   0  0  0  0  0  0  0  0  0  0  0  0
    5.1964    1.4864    0.0152 C   0  0  0  0  0  0  0  0  0  0  0  0
    4.4785    1.0447    1.0996 C   0  0  0  0  0  0  0  0  0  0  0  0
    3.1441    0.7205    0.9758 C   0  0  0  0  0  0  0  0  0  0  0  0
  1  2  2  0
  2  3  1  0
  3  4  1  0
  4  5  1  0
  5  6  1  0
  6  7  1  0
  7  8  1  0
  8  9  1  0
  7 10  1  0
 10 11  1  0
 11 12  1  0
 12 13  2  0
 13 14  1  0
 14 15  2  0
 15 16  1  0
 16 17  2  0
 17 12  1  0
M  RAD  1   8   2
M  END
$$$$
