
     RDKit          3D

 16 16  0  0  0  0  0  0  0  0999 V2000
    2.5940    3.3795   -1.1068 Cl  0  0  0  0  0  0  0  0  0  0  0  0
    3.0401    1.6979   -1.1472 C   0  0  0  0  0  0  0  0  0  0  0  0
    2.4578    0.8176   -0.3336 C   0  0  0  0  0  0  0  0  0  0  0  0
    2.8868   -0.5849   -0.4255 C   0  0  0  0  0  0  0  0  0  0  0  0
    2.3312   -1.4916    0.3673 C   0  0  0  0  0  0  0  0  0  0  0  0
    1.3294   -1.1820    1.3157 N   0  0  0  0  0  0  0  0  0  0  0  0
    0.1140   -0.6450    0.8874 N   0  0  0  0  0  0  0  0  0  0  0  0
   -0.2294   -0.5734   -0.3127 N   0  0  0  0  0  0  0  0  0  0  0  0
   -1.5216    0.0080   -0.6258 C   0  0  0  0  0  0  0  0  0  0  0  0
   -2.4930   -1.0742   -0.8870 C   0  0  0  0  0  0  0  0  0  0  0  0
   -3.7070   -1.1079   -0.0972 C   0  0  0  0  0  0  0  0  0  0  0  0
   -3.9609   -0.2166    0.8284 C   0  0  0  0  0  0  0  0  0  0  0  0
   -3.0052    0.8404    1.0788 C   0  0  0  0  0  0  0  0  0  0  0  0
   -1.8710    0.9663    0.4209 C   0  0  0  0  0  0  0  0  0  0  0  0
   -0.8321    2.3059    0.8545 Cl  0  0  0  0  0  0  0  0  0  0  0  0
    2.8669   -3.1399    0.2270 Cl  0  0  0  0  0  0  0  0  0  0  0  0
  1  2  1  0
  2  3  2  3
  3  4  1  0
  4  5  2  3
  5  6  1  0
  6  7  1  0
  7  8  2  3
  8  9  1  0
  9 10  1  0
 10 11  1  0
 11 12  2  0
 12 13  1  0
 13 14  2  0
 14 15  1  0
  5 16  1  0
 14  9  1  0
M  END
$$$$
