
     RDKit          3D

 14 14  0  0  0  0  0  0  0  0999 V2000
    1.1819   -0.8167    0.5113 C   0  0  0  0  0  0  0  0  0  0  0  0
    2.6738   -1.1421    0.4121 C   0  0  0  0  0  0  0  0  0  0  0  0
    3.3519   -0.8859    1.6464 N   0  0  0  0  0  0  0  0  0  0  0  0
    4.5908   -0.5476    1.5930 C   0  0  0  0  0  0  0  0  0  0  0  0
    5.4709   -0.3923    0.0407 S   0  0  0  0  0  0  0  0  0  0  0  0
    0.6045   -1.1257   -0.8275 C   0  0  0  0  0  0  0  0  0  0  0  0
    0.0227   -0.1458   -1.4977 C   0  0  0  0  0  0  0  0  0  0  0  0
   -0.0928    1.2476   -1.0009 C   0  0  0  0  0  0  0  0  0  0  0  0
   -1.5384    1.6042   -0.9079 C   0  0  0  0  0  0  0  0  0  0  0  0
   -2.3065    0.7036    0.0325 C   0  0  0  0  0  0  0  0  0  0  0  0
   -2.2638   -0.7347   -0.3793 C   0  0  0  0  0  0  0  0  0  0  0  0
   -3.5586   -1.2427    0.2746 C   0  0  0  0  0  0  0  0  0  0  0  0
   -4.4337   -0.0221    0.1158 C   0  0  0  0  0  0  0  0  0  0  0  0
   -3.7026    1.0134   -0.0130 N   0  0  0  0  0  0  0  0  0  0  0  0
  1  2  1  0
  2  3  1  0
  3  4  2  3
  4  5  1  0
  1  6  1  0
  6  7  2  3
  7  8  1  0
  8  9  1  0
  9 10  1  0
 10 11  1  0
 11 12  1  0
 12 13  1  0
 13 14  2  0
 14 10  1  0
M  END
$$$$
