
     RDKit          3D

 15 14  0  0  0  0  0  0  0  0999 V2000
   -2.2946    3.2417    0.1223 O   0  0  0  0  0  0  0  0  0  0  0  0
   -2.0144    2.1161    0.9176 C   0  0  0  0  0  0  0  0  0  0  0  0
   -2.7985    0.9613    0.3399 C   0  0  0  0  0  3  0  0  0  0  0  0
   -1.9690    0.2895   -0.6662 N   0  0  0  0  0  0  0  0  0  0  0  0
   -1.5020   -0.9788   -0.1955 C   0  0  2  0  0  0  0  0  0  0  0  0
   -2.5777   -1.9808    0.1010 C   0  0  0  0  0  0  0  0  0  0  0  0
   -3.3471   -2.2738   -1.0197 O   0  0  0  0  0  0  0  0  0  0  0  0
   -0.4368   -0.8814    0.8416 C   0  0  1  0  0  0  0  0  0  0  0  0
   -0.0688   -2.1754    1.2225 O   0  0  0  0  0  0  0  0  0  0  0  0
    0.7928   -0.2831    0.1841 C   0  0  2  0  0  0  0  0  0  0  0  0
    1.1832   -1.0280   -0.9315 O   0  0  0  0  0  0  0  0  0  0  0  0
    1.9416   -0.1973    1.1697 C   0  0  0  0  0  3  0  0  0  0  0  0
    3.1105    0.3974    0.4161 C   0  0  0  0  0  3  0  0  0  0  0  0
    4.3539    1.0712    1.5498 S   0  0  0  0  0  0  0  0  0  0  0  0
    5.6271    1.7216    0.5693 O   0  0  0  0  0  0  0  0  0  0  0  0
  1  2  1  0
  2  3  1  0
  3  4  1  0
  4  5  1  0
  5  6  1  1
  6  7  1  0
  5  8  1  0
  8  9  1  6
  8 10  1  0
 10 11  1  6
 10 12  1  0
 12 13  1  0
 13 14  1  0
 14 15  1  0
M  RAD  3   3   2  12   2  13   2
M  END
$$$$
