
     RDKit          3D

 11 10  0  0  0  0  0  0  0  0999 V2000
    3.4434   -0.1017   -0.6091 O   0  0  0  0  0  0  0  0  0  0  0  0
    3.3720   -0.7381    0.6138 C   0  0  0  0  0  0  0  0  0  0  0  0
    2.2057   -0.3643    1.4614 C   0  0  0  0  0  3  0  0  0  0  0  0
    1.3151    0.6037    0.8936 N   0  0  0  0  0  0  0  0  0  0  0  0
    0.2552   -0.1077    0.2171 C   0  0  2  0  0  0  0  0  0  0  0  0
    0.8223   -0.9153   -0.8990 C   0  0  0  0  0  0  0  0  0  0  0  0
   -0.8265    0.6735   -0.1032 O   0  0  0  0  0  0  0  0  0  0  0  0
   -1.8139   -0.0583   -0.7507 C   0  0  1  0  0  0  0  0  0  0  0  0
   -2.2552   -1.1015    0.0856 O   0  0  0  0  0  0  0  0  0  0  0  0
   -2.9972    0.8569   -1.0530 C   0  0  0  0  0  3  0  0  0  0  0  0
   -3.5209    1.3690    0.1436 O   0  0  0  0  0  0  0  0  0  0  0  0
  1  2  1  0
  2  3  1  0
  3  4  1  0
  4  5  1  0
  5  6  1  6
  5  7  1  0
  7  8  1  0
  8  9  1  1
  8 10  1  0
 10 11  1  0
M  RAD  2   3   2  10   2
M  END
$$$$
