
     RDKit          3D

 24 25  0  0  0  0  0  0  0  0999 V2000
   -2.8400    2.6629   -0.9886 C   0  0  0  0  0  0  0  0  0  0  0  0
   -2.9372    1.1808   -1.2770 C   0  0  0  0  0  3  0  0  0  0  0  0
   -2.3884    0.3676   -0.1380 C   0  0  0  0  0  0  0  0  0  0  0  0
   -3.1124    0.5941    1.1712 C   0  0  2  0  0  0  0  0  0  0  0  0
   -2.2547    1.2773    2.0321 O   0  0  0  0  0  0  0  0  0  0  0  0
   -3.4739   -0.7163    1.8439 C   0  0  0  0  0  0  0  0  0  0  0  0
   -4.5234   -1.3733    1.2052 O   0  0  0  0  0  0  0  0  0  0  0  0
   -4.1170   -2.3078    0.3735 O   0  0  0  0  0  0  0  0  0  0  0  0
   -3.7050   -1.6435   -0.8022 C   0  0  1  0  0  0  0  0  0  0  0  0
   -4.6030   -0.5644   -0.9632 O   0  0  0  0  0  0  0  0  0  0  0  0
   -2.3586   -1.0724   -0.5182 C   0  0  1  0  0  0  0  0  0  0  0  0
   -1.3274   -1.4109   -1.4359 N   0  0  0  0  0  0  0  0  0  0  0  0
   -0.0443   -1.1666   -0.8270 C   0  0  0  0  0  3  0  0  0  0  0  0
   -0.0409    0.1860   -0.1492 C   0  0  0  0  0  0  0  0  0  0  0  0
    1.3270    0.3752    0.4642 C   0  0  0  0  0  0  0  0  0  0  0  0
    1.5946    1.5537    1.1574 O   0  0  0  0  0  0  0  0  0  0  0  0
    2.1080    1.5217   -0.1372 C   0  0  1  0  0  0  0  0  0  0  0  0
    3.4418    1.2662   -0.3379 O   0  0  0  0  0  0  0  0  0  0  0  0
    3.8482    0.0367    0.1491 C   0  0  1  0  0  0  0  0  0  0  0  0
    3.1743   -1.0213   -0.4406 O   0  0  0  0  0  0  0  0  0  0  0  0
    5.3447   -0.0801    0.0422 C   0  0  2  0  0  0  0  0  0  0  0  0
    5.9259    0.9358    0.7933 O   0  0  0  0  0  0  0  0  0  0  0  0
    5.7698    0.1637   -1.4035 C   0  0  0  0  0  3  0  0  0  0  0  0
    5.1921   -0.7649   -2.2739 O   0  0  0  0  0  0  0  0  0  0  0  0
  1  2  1  0
  2  3  1  0
  3  4  1  0
  4  5  1  1
  4  6  1  0
  6  7  1  0
  7  8  1  0
  8  9  1  0
  9 10  1  1
  9 11  1  0
 11 12  1  6
 12 13  1  0
 13 14  1  0
 14 15  1  0
 15 16  1  0
 15 17  1  0
 17 18  1  1
 18 19  1  0
 19 20  1  6
 19 21  1  0
 21 22  1  1
 21 23  1  0
 23 24  1  0
 11  3  1  0
 17 16  1  0
M  RAD  3   2   2  13   2  23   2
M  END
$$$$
