
     RDKit          3D

 16 15  0  0  0  0  0  0  0  0999 V2000
   -5.3788    0.3270    2.9320 C   0  0  0  0  0  0  0  0  0  0  0  0
   -4.0905    0.1474    2.1866 C   0  0  0  0  0  0  0  0  0  0  0  0
   -3.6149   -1.1460    1.8804 N   0  0  0  0  0  0  0  0  0  0  0  0
   -2.3972   -1.2811    1.1768 C   0  0  0  0  0  0  0  0  0  0  0  0
   -1.7365   -0.2076    0.8242 C   0  0  0  0  0  0  0  0  0  0  0  0
   -0.4652   -0.3439    0.0897 C   0  0  0  0  0  0  0  0  0  0  0  0
   -0.1272   -1.8111   -0.0461 C   0  0  0  0  0  0  0  0  0  0  0  0
   -0.6123    0.3386   -1.2108 C   0  0  0  0  0  0  0  0  0  0  0  0
    0.3991    0.8609   -1.8583 C   0  0  0  0  0  0  0  0  0  0  0  0
    1.4226    1.0273   -2.6304 C   0  0  0  0  0  0  0  0  0  0  0  0
    2.5111    0.0911   -2.7807 C   0  0  0  0  0  0  0  0  0  0  0  0
    3.6257    0.2303   -2.0925 C   0  0  0  0  0  0  0  0  0  0  0  0
    4.5732    0.4307   -1.2079 C   0  0  0  0  0  0  0  0  0  0  0  0
    4.3025    0.2169    0.2562 C   0  0  0  0  0  0  0  0  0  0  0  0
    5.0596   -1.0615    0.6241 C   0  0  0  0  0  0  0  0  0  0  0  0
   -3.4712    1.1833    1.8568 O   0  0  0  0  0  0  0  0  0  0  0  0
  1  2  1  0
  2  3  1  0
  3  4  1  0
  4  5  2  3
  5  6  1  0
  6  7  1  0
  6  8  1  0
  8  9  2  0
  9 10  2  0
 10 11  1  0
 11 12  2  0
 12 13  2  0
 13 14  1  0
 14 15  1  0
  2 16  2  0
M  END
$$$$
