
     RDKit          3D

 15 14  0  0  0  0  0  0  0  0999 V2000
    3.9462   -0.2867   -1.8281 N   0  0  0  0  0  0  0  0  0  0  0  0
    3.7549   -1.1187   -0.6988 C   0  0  0  0  0  0  0  0  0  0  0  0
    4.5694   -1.0247    0.2623 O   0  0  0  0  0  0  0  0  0  0  0  0
    2.6093   -2.0650   -0.6870 C   0  0  0  0  0  3  0  0  0  0  0  0
    1.3488   -1.2082   -0.8699 C   0  0  0  0  0  0  0  0  0  0  0  0
    1.2535   -0.2299    0.2565 C   0  0  0  0  0  0  0  0  0  0  0  0
    1.1693   -0.8927    1.5918 C   0  0  0  0  0  0  0  0  0  0  0  0
    0.0789    1.0918   -0.0045 S   0  0  0  0  0  0  0  0  0  0  0  0
   -1.6019    0.4966   -0.0598 C   0  0  0  0  0  0  0  0  0  0  0  0
   -2.0710   -0.0654    1.2864 C   0  0  0  0  0  0  0  0  0  0  0  0
   -3.5143   -0.5208    1.0507 C   0  0  0  0  0  0  0  0  0  0  0  0
   -3.6253   -1.9999   -0.4513 I   0  0  0  0  0  0  0  0  0  0  0  0
   -2.5954    1.4998   -0.5421 C   0  0  0  0  0  0  0  0  0  0  0  0
   -2.6462    2.6986    0.2947 C   0  0  0  0  0  0  0  0  0  0  0  0
   -2.6762    3.6252    0.9544 N   0  0  0  0  0  0  0  0  0  0  0  0
  1  2  1  0
  2  3  2  0
  2  4  1  0
  4  5  1  0
  5  6  1  0
  6  7  1  0
  6  8  1  0
  8  9  1  0
  9 10  1  0
 10 11  1  0
 11 12  1  0
  9 13  1  0
 13 14  1  0
 14 15  3  0
M  RAD  1   4   2
M  END
$$$$
