
     RDKit          3D

 11 11  0  0  0  0  0  0  0  0999 V2000
    2.7932    0.0125    0.2182 O   0  0  0  0  0  0  0  0  0  0  0  0
    2.1570   -1.0172   -0.4674 C   0  0  0  0  0  0  0  0  0  0  0  0
    0.6530   -0.8805   -0.3619 C   0  0  1  0  0  0  0  0  0  0  0  0
    0.3071   -0.9376    1.0385 N   0  0  0  0  0  0  0  0  0  0  0  0
   -1.1285   -1.1147    1.1444 C   0  0  0  0  0  3  0  0  0  0  0  0
   -1.8784   -0.0760    0.3645 C   0  0  2  0  0  0  0  0  0  0  0  0
   -2.6810   -0.7171   -0.5654 O   0  0  0  0  0  0  0  0  0  0  0  0
   -1.0024    0.9853   -0.2231 C   0  0  1  0  0  0  0  0  0  0  0  0
   -0.6734    1.9238    0.7518 O   0  0  0  0  0  0  0  0  0  0  0  0
    0.2072    0.4497   -0.9329 C   0  0  1  0  0  0  0  0  0  0  0  0
    1.2462    1.3718   -0.9667 O   0  0  0  0  0  0  0  0  0  0  0  0
  1  2  1  0
  3  2  1  1
  3  4  1  0
  4  5  1  0
  5  6  1  0
  6  7  1  6
  6  8  1  0
  8  9  1  1
  8 10  1  0
 10 11  1  1
 10  3  1  0
M  RAD  1   5   2
M  END
$$$$
