
     RDKit          3D

 24 26  0  0  0  0  0  0  0  0999 V2000
   -0.9823   -2.7211   -0.5031 C   0  0  0  0  0  0  0  0  0  0  0  0
   -1.5620   -1.5763    0.2522 C   0  0  1  0  0  0  0  0  0  0  0  0
   -0.5620   -0.6068    0.7800 C   0  0  0  0  0  0  0  0  0  0  0  0
   -1.3015    0.4597    1.5706 C   0  0  2  0  0  0  0  0  0  0  0  0
   -1.9554   -0.0504    2.6683 O   0  0  0  0  0  0  0  0  0  0  0  0
   -2.2778    1.1623    0.6300 C   0  0  2  0  0  0  0  0  0  0  0  0
   -2.8250    2.2928    1.1782 O   0  0  0  0  0  0  0  0  0  0  0  0
   -3.3028    0.1223    0.2320 C   0  0  1  0  0  0  0  0  0  0  0  0
   -4.4255    0.6462   -0.3479 O   0  0  0  0  0  0  0  0  0  0  0  0
   -2.5761   -0.8763   -0.6595 C   0  0  1  0  0  0  0  0  0  0  0  0
   -1.8256   -0.2378   -1.7011 N   0  0  0  0  0  0  0  0  0  0  0  0
   -0.8614    0.7138   -1.2420 C   0  0  0  0  0  3  0  0  0  0  0  0
    0.1805    0.1375   -0.3316 C   0  0  0  0  0  0  0  0  0  0  0  0
    0.9317    1.2624    0.3549 C   0  0  0  0  0  3  0  0  0  0  0  0
    1.2949    2.2737   -0.5023 O   0  0  0  0  0  0  0  0  0  0  0  0
    2.6096    2.4427   -0.4617 O   0  0  0  0  0  0  0  0  0  0  0  0
    3.2262    1.5614    0.4146 C   0  0  0  0  0  3  0  0  0  0  0  0
    3.9297    0.5610   -0.2694 O   0  0  0  0  0  0  0  0  0  0  0  0
    3.7746   -0.6276    0.4385 C   0  0  0  0  0  0  0  0  0  0  0  0
    3.2449   -1.5941   -0.3973 O   0  0  0  0  0  0  0  0  0  0  0  0
    1.8619   -1.7217   -0.1587 C   0  0  1  0  0  0  0  0  0  0  0  0
    1.5581   -1.5912    1.1830 O   0  0  0  0  0  0  0  0  0  0  0  0
    1.1703   -0.7287   -1.0356 C   0  0  1  0  0  0  0  0  0  0  0  0
    0.6750   -1.3037   -2.2062 O   0  0  0  0  0  0  0  0  0  0  0  0
  2  1  1  6
  2  3  1  0
  3  4  1  0
  4  5  1  1
  4  6  1  0
  6  7  1  1
  6  8  1  0
  8  9  1  6
  8 10  1  0
 10 11  1  6
 11 12  1  0
 12 13  1  0
 13 14  1  0
 14 15  1  0
 15 16  1  0
 16 17  1  0
 17 18  1  0
 18 19  1  0
 19 20  1  0
 20 21  1  0
 21 22  1  1
 21 23  1  0
 23 24  1  6
 10  2  1  0
 13  3  1  0
 23 13  1  0
M  RAD  3  12   2  14   2  17   2
M  END
$$$$
