
     RDKit          3D

 21 20  0  0  0  0  0  0  0  0999 V2000
   -4.4908    0.2061    3.3557 C   0  0  0  0  0  0  0  0  0  0  0  0
   -4.6433   -0.0955    1.9129 C   0  0  0  0  0  0  0  0  0  0  0  0
   -6.0109   -0.5976    1.6288 C   0  0  0  0  0  0  0  0  0  0  0  0
   -4.4373    1.2427    1.1560 C   0  0  0  0  0  0  0  0  0  0  0  0
   -4.5655    0.7947   -0.3871 C   0  0  0  0  0  0  0  0  0  0  0  0
   -3.5598   -0.2113   -0.7721 C   0  0  0  0  0  0  0  0  0  0  0  0
   -2.1471    0.2624   -0.6661 C   0  0  1  0  0  0  0  0  0  0  0  0
   -1.8507    0.7782    0.8296 C   0  0  0  0  0  0  0  0  0  0  0  0
   -1.2396   -1.0312   -0.7477 C   0  0  2  0  0  0  0  0  0  0  0  0
   -1.5431   -1.8883    0.4760 C   0  0  0  0  0  2  0  0  0  0  0  0
    0.1989   -0.8208   -1.0381 C   0  0  0  0  0  3  0  0  0  0  0  0
    0.2711   -0.1673   -2.4508 C   0  0  0  0  0  2  0  0  0  0  0  0
    0.9283   -0.0063   -0.0184 C   0  0  0  0  0  0  0  0  0  0  0  0
    2.4260   -0.1467   -0.2718 C   0  0  1  0  0  0  0  0  0  0  0  0
    2.8440   -1.6657    0.0121 C   0  0  0  0  0  0  0  0  0  0  0  0
    2.6359   -0.0778   -1.8585 C   0  0  0  0  0  0  0  0  0  0  0  0
    4.1619   -0.2862   -1.8823 C   0  0  0  0  0  0  0  0  0  0  0  0
    4.7787    0.8919   -1.3508 O   0  0  0  0  0  0  0  0  0  0  0  0
    4.6029    1.0242   -0.1321 O   0  0  0  0  0  0  0  0  0  0  0  0
    5.2283    0.8976    1.0480 C   0  0  0  0  0  0  0  0  0  0  0  0
    6.4123    0.4451    1.1569 O   0  0  0  0  0  0  0  0  0  0  0  0
  1  2  1  0
  2  3  1  0
  2  4  1  0
  4  5  1  0
  5  6  1  0
  6  7  1  0
  7  8  1  1
  7  9  1  0
  9 10  1  1
  9 11  1  0
 11 12  1  0
 11 13  1  0
 13 14  1  0
 14 15  1  6
 14 16  1  0
 16 17  1  0
 17 18  1  0
 18 19  1  0
 19 20  1  0
 20 21  2  0
M  RAD  3  10   3  11   2  12   3
M  END
$$$$
