
     RDKit          3D

 37 36  0  0  0  0  0  0  0  0999 V2000
  -10.1139   -0.8270    2.1264 C   0  0  0  0  0  0  0  0  0  0  0  0
  -10.5677    0.3477    1.6909 C   0  0  0  0  0  0  0  0  0  0  0  0
  -11.8225    0.8045    2.0463 O   0  0  0  0  0  0  0  0  0  0  0  0
   -9.6729    1.1432    0.8103 C   0  0  0  0  0  0  0  0  0  0  0  0
   -8.3750    0.3860    0.5675 C   0  0  0  0  0  0  0  0  0  0  0  0
   -8.7564   -0.9363   -0.0938 C   0  0  0  0  0  0  0  0  0  0  0  0
   -9.4664   -0.6211   -1.4045 C   0  0  0  0  0  0  0  0  0  0  0  0
   -8.4582    0.1381   -2.2773 C   0  0  0  0  0  0  0  0  0  0  0  0
   -7.2818   -0.6711   -2.5531 C   0  0  0  0  0  0  0  0  0  0  0  0
   -6.0370   -0.5192   -2.3530 C   0  0  0  0  0  0  0  0  0  0  0  0
   -5.2113    0.5147   -1.7656 C   0  0  0  0  0  0  0  0  0  0  0  0
   -4.4214    0.0065   -0.6110 C   0  0  0  0  0  0  0  0  0  0  0  0
   -3.5079   -1.0588   -0.7237 C   0  0  0  0  0  0  0  0  0  0  0  0
   -2.3080   -1.1227   -1.4971 C   0  0  0  0  0  0  0  0  0  0  0  0
   -1.2517   -0.1550   -1.1542 C   0  0  2  0  0  0  0  0  0  0  0  0
   -1.4481    1.2748   -1.3396 C   0  0  0  0  0  0  0  0  0  0  0  0
   -1.5845    1.6750   -2.7620 C   0  0  0  0  0  0  0  0  0  0  0  0
   -2.6372    1.0424   -3.5014 C   0  0  0  0  0  0  0  0  0  0  0  0
   -2.6381   -0.0502   -4.0079 O   0  0  0  0  0  0  0  0  0  0  0  0
    0.0950   -0.5686   -1.6564 C   0  0  0  0  0  0  0  0  0  0  0  0
    0.9485   -1.1142   -0.8198 C   0  0  0  0  0  0  0  0  0  0  0  0
    0.5598   -1.3018    0.5983 C   0  0  0  0  0  0  0  0  0  0  0  0
    1.5240   -0.6273    1.5413 C   0  0  0  0  0  0  0  0  0  0  0  0
    1.6464    0.8701    1.3135 C   0  0  0  0  0  0  0  0  0  0  0  0
    2.6592    1.3551    2.3499 C   0  0  0  0  0  0  0  0  0  0  0  0
    3.9536    0.5843    2.0701 C   0  0  0  0  0  0  0  0  0  0  0  0
    4.4172    0.8758    0.6581 C   0  0  0  0  0  0  0  0  0  0  0  0
    5.6588    0.1422    0.3270 C   0  0  0  0  0  0  0  0  0  0  0  0
    6.8066    0.6462   -0.0334 C   0  0  0  0  0  0  0  0  0  0  0  0
    7.9507   -0.2951   -0.3253 C   0  0  0  0  0  0  0  0  0  0  0  0
    9.1153   -0.0363    0.5668 C   0  0  0  0  0  0  0  0  0  0  0  0
    8.7920   -0.2062    2.0358 C   0  0  0  0  0  0  0  0  0  0  0  0
   10.0493    0.0782    2.8222 C   0  0  0  0  0  0  0  0  0  0  0  0
   11.1608   -0.8296    2.4913 C   0  0  0  0  0  0  0  0  0  0  0  0
   12.2939   -0.3635    2.0021 C   0  0  0  0  0  0  0  0  0  0  0  0
   13.3919   -1.2818    1.6773 C   0  0  0  0  0  0  0  0  0  0  0  0
   14.5371   -0.8265    1.1841 C   0  0  0  0  0  0  0  0  0  0  0  0
  1  2  2  0
  2  3  1  0
  2  4  1  0
  4  5  1  0
  5  6  1  0
  6  7  1  0
  7  8  1  0
  8  9  1  0
  9 10  2  3
 10 11  1  0
 11 12  1  0
 12 13  1  0
 13 14  1  0
 15 14  1  6
 15 16  1  0
 16 17  1  0
 17 18  1  0
 18 19  2  0
 15 20  1  0
 20 21  2  3
 21 22  1  0
 22 23  1  0
 23 24  1  0
 24 25  1  0
 25 26  1  0
 26 27  1  0
 27 28  1  0
 28 29  2  0
 29 30  1  0
 30 31  1  0
 31 32  1  0
 32 33  1  0
 33 34  1  0
 34 35  2  3
 35 36  1  0
 36 37  2  0
M  END
$$$$
