
     RDKit          3D

 10 10  0  0  0  0  0  0  0  0999 V2000
    3.3773   -0.1670    0.8457 C   0  0  0  0  0  0  0  0  0  0  0  0
    2.2274    0.1183   -0.0578 C   0  0  0  0  0  0  0  0  0  0  0  0
    1.6957    1.5074    0.0515 C   0  0  0  0  0  0  0  0  0  0  0  0
    1.0852   -0.8626    0.0779 C   0  0  0  0  0  0  0  0  0  0  0  0
    0.0115   -0.4566   -0.8790 C   0  0  0  0  0  0  0  0  0  0  0  0
   -1.2214   -1.3599   -0.8643 C   0  0  0  0  0  0  0  0  0  0  0  0
   -2.1213   -0.1239   -0.9097 C   0  0  1  0  0  0  0  0  0  0  0  0
   -3.2204   -0.2241    0.1384 C   0  0  0  0  0  0  0  0  0  0  0  0
   -0.8978    0.6613   -0.4305 C   0  0  1  0  0  0  0  0  0  0  0  0
   -0.9362    0.9071    1.0606 C   0  0  0  0  0  2  0  0  0  0  0  0
  1  2  1  0
  2  3  1  0
  2  4  1  0
  4  5  1  0
  5  6  1  0
  6  7  1  0
  7  8  1  1
  7  9  1  0
  9 10  1  1
  9  5  1  0
M  RAD  1  10   3
M  END
$$$$
