
     RDKit          3D

 14 13  0  0  0  0  0  0  0  0999 V2000
   -4.6149    1.8564    0.1231 C   0  0  0  0  0  0  0  0  0  0  0  0
   -3.2998    1.7594   -0.2847 O   0  0  0  0  0  0  0  0  0  0  0  0
   -2.8962    0.5321   -0.7291 C   0  0  0  0  0  3  0  0  0  0  0  0
   -1.5186    0.3735   -0.3611 O   0  0  0  0  0  0  0  0  0  0  0  0
   -1.1408   -0.8802   -0.9134 C   0  0  2  0  0  0  0  0  0  0  0  0
   -0.9869   -1.7085    0.4888 C   0  0  0  0  0  0  0  0  0  0  0  0
    0.3248   -0.8930   -1.3570 C   0  0  0  0  0  0  0  0  0  0  0  0
    1.3822   -0.8037   -0.2920 C   0  0  1  0  0  0  0  0  0  0  0  0
    1.3921    0.2732    0.6172 N   0  0  0  0  0  0  0  0  0  0  0  0
    1.7558    1.4904   -0.1457 C   0  0  0  0  0  3  0  0  0  0  0  0
    3.1202    2.0098    0.1625 C   0  0  0  0  0  0  0  0  0  0  0  0
    4.0942    1.2320   -0.7242 C   0  0  0  0  0  2  0  0  0  0  0  0
    1.1715   -2.0874    0.5726 C   0  0  0  0  0  0  0  0  0  0  0  0
    1.2163   -3.1540    0.0054 O   0  0  0  0  0  0  0  0  0  0  0  0
  1  2  1  0
  2  3  1  0
  3  4  1  0
  4  5  1  0
  5  6  1  1
  5  7  1  0
  8  7  1  6
  8  9  1  0
  9 10  1  0
 10 11  1  0
 11 12  1  0
  8 13  1  0
 13 14  2  0
M  RAD  3   3   2  10   2  12   3
M  END
$$$$
