
     RDKit          3D

  7  7  0  0  0  0  0  0  0  0999 V2000
   -1.6147    0.1872   -0.4738 O   0  0  0  0  0  0  0  0  0  0  0  0
   -1.0633    1.1461    0.3985 C   0  0  0  0  0  0  0  0  0  0  0  0
    0.4300    1.1088    0.3379 C   0  0  0  0  0  0  0  0  0  0  0  0
    0.9860   -0.0433    0.0340 C   0  0  0  0  0  0  0  0  0  0  0  0
    2.3549   -0.1922   -0.0499 O   0  0  0  0  0  0  0  0  0  0  0  0
    0.1547   -1.1602   -0.2133 N   0  0  0  0  0  0  0  0  0  0  0  0
   -1.2476   -1.0464   -0.0335 N   0  0  0  0  0  2  0  0  0  0  0  0
  1  2  1  0
  2  3  1  0
  3  4  2  0
  4  5  1  0
  4  6  1  0
  6  7  1  0
  7  1  1  0
M  CHG  1   7   1
M  RAD  1   7   3
M  END
$$$$
