
     RDKit          3D

 30 33  0  0  0  0  0  0  0  0999 V2000
   -1.2596   -1.9616   -0.5354 C   0  0  0  0  0  0  0  0  0  0  0  0
    0.0684   -2.5922   -0.6951 C   0  0  0  0  0  0  0  0  0  0  0  0
    1.0809   -1.8013   -1.4376 C   0  0  0  0  0  0  0  0  0  0  0  0
    0.5776   -3.3400    0.4849 C   0  0  0  0  0  0  0  0  0  0  0  0
    1.4333   -2.5393    1.4105 C   0  0  0  0  0  0  0  0  0  0  0  0
    2.8660   -2.4789    0.9044 C   0  0  0  0  0  0  0  0  0  0  0  0
    3.4530   -1.1829    1.3986 C   0  0  0  0  0  0  0  0  0  0  0  0
    4.7002   -0.9024    0.5630 C   0  0  1  0  0  0  0  0  0  0  0  0
    4.4309   -1.4334   -0.8224 C   0  0  0  0  0  2  0  0  0  0  0  0
    4.9140    0.6018    0.4945 C   0  0  0  0  0  0  0  0  0  0  0  0
    3.6069    1.3130    0.7588 C   0  0  0  0  0  0  0  0  0  0  0  0
    3.5808    2.6845    0.1058 C   0  0  2  0  0  0  0  0  0  0  0  0
    3.5862    3.7887    1.1494 C   0  0  0  0  0  0  0  0  0  0  0  0
    2.2941    2.8613   -0.6995 C   0  0  0  0  0  3  0  0  0  0  0  0
    1.7077    1.4977   -0.9074 C   0  0  0  0  0  0  0  0  0  0  0  0
    0.3273    1.3640   -0.3010 C   0  0  0  0  0  0  0  0  0  0  0  0
    0.0774   -0.0012    0.2815 C   0  0  0  0  0  3  0  0  0  0  0  0
   -0.6769    1.5715   -1.3947 C   0  0  0  0  0  0  0  0  0  0  0  0
   -1.6529    2.6590   -1.0983 C   0  0  0  0  0  0  0  0  0  0  0  0
   -1.2969    0.2215   -1.5971 C   0  0  0  0  0  0  0  0  0  0  0  0
   -2.5649    0.2611   -2.1283 O   0  0  0  0  0  0  0  0  0  0  0  0
   -3.4344    1.1298   -1.4869 C   0  0  0  0  0  3  0  0  0  0  0  0
   -4.5550    0.3146   -0.8800 C   0  0  0  0  0  0  0  0  0  0  0  0
   -4.5857    0.6918    0.6090 C   0  0  2  0  0  0  0  0  0  0  0  0
   -3.1267    0.9056    0.9694 C   0  0  0  0  0  0  0  0  0  0  0  0
   -5.0414   -0.4617    1.2555 O   0  0  0  0  0  0  0  0  0  0  0  0
   -4.0865   -1.0955    2.0155 C   0  0  0  0  0  0  0  0  0  0  0  0
   -2.8158   -1.4330    1.2435 C   0  0  0  0  0  0  0  0  0  0  0  0
   -2.3794   -0.1603    0.6039 C   0  0  0  0  0  0  0  0  0  0  0  0
   -1.2285   -0.4822   -0.2644 C   0  0  0  0  0  0  0  0  0  0  0  0
  1  2  1  0
  2  3  1  0
  2  4  1  0
  4  5  1  0
  5  6  1  0
  6  7  1  0
  7  8  1  0
  8  9  1  6
  8 10  1  0
 10 11  1  0
 11 12  1  0
 12 13  1  1
 12 14  1  0
 14 15  1  0
 15 16  1  0
 16 17  1  0
 16 18  1  0
 18 19  1  0
 18 20  1  0
 20 21  1  0
 21 22  1  0
 22 23  1  0
 24 23  1  6
 24 25  1  0
 24 26  1  0
 26 27  1  0
 27 28  1  0
 28 29  1  0
 29 30  1  0
 30  1  1  0
 30 17  1  0
 30 20  1  0
 25 29  2  0
M  RAD  4   9   3  14   2  17   2  22   2
M  END
$$$$
