
     RDKit          3D

 71 76  0  0  0  0  0  0  0  0999 V2000
   11.6419   -1.0958    1.3233 C   0  0  0  0  0  0  0  0  0  0  0  0
   12.3002   -1.8361    2.3194 C   0  0  0  0  0  0  0  0  0  0  0  0
   12.6094   -1.1754    3.4907 C   0  0  0  0  0  0  0  0  0  0  0  0
   12.2913    0.1568    3.6912 C   0  0  0  0  0  0  0  0  0  0  0  0
   11.6520    0.8525    2.7109 C   0  0  0  0  0  0  0  0  0  0  0  0
   11.3277    0.2339    1.5326 C   0  0  0  0  0  0  0  0  0  0  0  0
   10.6050    0.9445    0.4263 C   0  0  0  0  0  0  0  0  0  0  0  0
   10.2060    2.1937    0.8587 O   0  0  0  0  0  0  0  0  0  0  0  0
    9.5291    2.8886   -0.1057 C   0  0  0  0  0  0  0  0  0  0  0  0
   10.3388    3.0845   -1.3932 C   0  0  0  0  0  0  0  0  0  0  0  0
    9.1735    4.1412    0.4382 O   0  0  0  0  0  0  0  0  0  0  0  0
    8.2310    2.1718   -0.4580 C   0  0  0  0  0  0  0  0  0  0  0  0
    8.4791    0.7982   -0.9727 C   0  0  0  0  0  0  0  0  0  0  0  0
    8.1766    0.4893   -2.2343 C   0  0  0  0  0  0  0  0  0  0  0  0
    7.5907    1.5745   -3.0820 C   0  0  0  0  0  0  0  0  0  0  0  0
    8.4027   -0.8433   -2.8131 C   0  0  0  0  0  0  0  0  0  0  0  0
    7.2748   -1.5464   -3.4133 C   0  0  0  0  0  0  0  0  0  0  0  0
    6.0935   -1.9077   -2.6386 C   0  0  0  0  0  0  0  0  0  0  0  0
    6.4132   -2.7992   -1.4829 C   0  0  0  0  0  0  0  0  0  0  0  0
    5.2136   -0.7852   -2.2720 C   0  0  0  0  0  0  0  0  0  0  0  0
    4.6417    0.0139   -3.3925 C   0  0  0  0  0  3  0  0  0  0  0  0
    3.7387    1.0842   -2.8607 C   0  0  0  0  0  0  0  0  0  0  0  0
    2.4734    0.6498   -2.3019 C   0  0  0  0  0  0  0  0  0  0  0  0
    1.9882    0.7191   -1.0915 C   0  0  0  0  0  0  0  0  0  0  0  0
    0.6572    0.1981   -0.8151 C   0  0  0  0  0  0  0  0  0  0  0  0
    2.7966    1.3167    0.0013 C   0  0  0  0  0  0  0  0  0  0  0  0
    2.0519    2.2878    0.8654 C   0  0  2  0  0  0  0  0  0  0  0  0
    2.5673    3.6825    0.6140 C   0  0  0  0  0  0  0  0  0  0  0  0
    2.2467    1.9064    2.2902 C   0  0  0  0  0  0  0  0  0  0  0  0
    1.9995    0.6170    2.5961 C   0  0  0  0  0  0  0  0  0  0  0  0
    1.5794   -0.2662    1.5472 C   0  0  0  0  0  0  0  0  0  0  0  0
    0.5664   -1.1051    1.5934 C   0  0  0  0  0  0  0  0  0  0  0  0
    0.4070   -1.8786    0.3142 C   0  0  0  0  0  0  0  0  0  0  0  0
    0.4523   -1.2475   -0.8306 C   0  0  0  0  0  0  0  0  0  0  0  0
    0.2624   -1.9414   -2.1008 C   0  0  0  0  0  0  0  0  0  0  0  0
    0.5225   -1.2373   -3.2848 C   0  0  0  0  0  0  0  0  0  0  0  0
    0.3889   -1.7938   -4.5383 C   0  0  0  0  0  0  0  0  0  0  0  0
   -0.0226   -3.1063   -4.5792 C   0  0  0  0  0  0  0  0  0  0  0  0
   -0.2866   -3.8238   -3.4454 C   0  0  0  0  0  0  0  0  0  0  0  0
   -0.1414   -3.2237   -2.2091 C   0  0  0  0  0  0  0  0  0  0  0  0
   -0.5613   -3.9722   -0.9616 C   0  0  0  0  0  0  0  0  0  0  0  0
   -1.9302   -3.6019   -0.7073 C   0  0  0  0  0  0  0  0  0  0  0  0
   -2.6132   -3.1240    0.2192 C   0  0  0  0  0  0  0  0  0  0  0  0
   -4.1057   -2.8635    0.1192 C   0  0  0  0  0  0  0  0  0  0  0  0
   -4.3894   -1.3953    0.2035 C   0  0  0  0  0  0  0  0  0  0  0  0
   -3.7564   -0.5978   -0.8401 C   0  0  0  0  0  0  0  0  0  0  0  0
   -3.3729    0.7626   -0.6098 C   0  0  0  0  0  0  0  0  0  0  0  0
   -2.9148    1.5470    0.1572 C   0  0  0  0  0  0  0  0  0  0  0  0
   -2.3617    2.1241    1.2946 C   0  0  0  0  0  0  0  0  0  0  0  0
   -3.1905    2.4676    2.3500 C   0  0  0  0  0  0  0  0  0  0  0  0
   -4.6243    2.1022    1.9907 C   0  0  0  0  0  0  0  0  0  0  0  0
   -4.7843    0.8429    1.7258 C   0  0  0  0  0  0  0  0  0  0  0  0
   -5.9240    0.0849    1.3411 C   0  0  0  0  0  0  0  0  0  0  0  0
   -5.7537   -1.0252    0.5821 C   0  0  0  0  0  0  0  0  0  0  0  0
   -6.8974   -1.7775    0.1345 C   0  0  0  0  0  0  0  0  0  0  0  0
   -6.7015   -2.9079   -0.6350 C   0  0  0  0  0  0  0  0  0  0  0  0
   -7.7995   -3.6107   -1.0545 C   0  0  0  0  0  0  0  0  0  0  0  0
   -9.0653   -3.2054   -0.7198 C   0  0  0  0  0  0  0  0  0  0  0  0
   -9.2475   -2.0634    0.0560 C   0  0  0  0  0  0  0  0  0  0  0  0
   -8.1657   -1.3351    0.4926 C   0  0  0  0  0  0  0  0  0  0  0  0
   -8.3665   -0.1034    1.2881 C   0  0  0  0  0  0  0  0  0  0  0  0
   -8.3357    1.1251    0.5259 C   0  0  0  0  0  0  0  0  0  0  0  0
   -9.1453    2.0763    0.3847 C   0  0  0  0  0  0  0  0  0  0  0  0
  -10.4234    2.4400    0.8570 C   0  0  0  0  0  0  0  0  0  0  0  0
  -10.9465    3.6688    0.3783 C   0  0  0  0  0  0  0  0  0  0  0  0
  -12.1613    4.1527    0.7576 C   0  0  0  0  0  0  0  0  0  0  0  0
  -12.9176    3.4227    1.6387 C   0  0  0  0  0  0  0  0  0  0  0  0
  -12.4833    2.2385    2.1354 C   0  0  0  0  0  0  0  0  0  0  0  0
  -11.2288    1.7659    1.7298 C   0  0  0  0  0  0  0  0  0  0  0  0
  -10.7857    0.4974    2.2901 C   0  0  0  0  0  0  0  0  0  0  0  0
  -11.4866   -0.1275    3.0743 O   0  0  0  0  0  0  0  0  0  0  0  0
  1  2  2  0
  2  3  1  0
  3  4  2  0
  4  5  1  0
  5  6  2  0
  6  7  1  0
  7  8  1  0
  8  9  1  0
  9 10  1  0
  9 11  1  0
  9 12  1  0
 12 13  1  0
 13 14  2  3
 14 15  1  0
 14 16  1  0
 16 17  1  0
 17 18  1  0
 18 19  1  0
 18 20  1  0
 20 21  1  0
 21 22  1  0
 22 23  1  0
 23 24  2  3
 24 25  1  0
 24 26  1  0
 26 27  1  0
 27 28  1  1
 27 29  1  0
 29 30  2  3
 30 31  1  0
 31 32  2  3
 32 33  1  0
 33 34  2  3
 34 35  1  0
 35 36  2  0
 36 37  1  0
 37 38  2  0
 38 39  1  0
 39 40  2  0
 40 41  1  0
 41 42  1  0
 42 43  2  3
 43 44  1  0
 44 45  1  0
 45 46  1  0
 46 47  1  0
 47 48  2  3
 48 49  1  0
 49 50  2  3
 50 51  1  0
 51 52  2  3
 52 53  1  0
 53 54  2  3
 54 55  1  0
 55 56  2  0
 56 57  1  0
 57 58  2  0
 58 59  1  0
 59 60  2  0
 60 61  1  0
 61 62  1  0
 62 63  2  3
 63 64  1  0
 64 65  2  0
 65 66  1  0
 66 67  2  0
 67 68  1  0
 68 69  2  0
 69 70  1  0
 70 71  2  0
  6  1  1  0
 34 25  1  0
 40 35  1  0
 54 45  1  0
 60 55  1  0
 69 64  1  0
M  RAD  1  21   2
M  END
$$$$
