
     RDKit          3D

 18 17  0  0  0  0  0  0  0  0999 V2000
    5.1803   -1.1161    0.2949 O   0  0  0  0  0  0  0  0  0  0  0  0
    5.1933   -1.8034    1.3489 C   0  0  0  0  0  0  0  0  0  0  0  0
    4.1176   -1.7809    2.3318 C   0  0  0  0  0  0  0  0  0  0  0  0
    3.0565   -1.0080    2.1367 C   0  0  0  0  0  0  0  0  0  0  0  0
    1.9526   -0.9765    3.1323 C   0  0  0  0  0  0  0  0  0  0  0  0
    2.9730   -0.1837    0.9369 C   0  0  0  0  0  0  0  0  0  0  0  0
    1.9184    0.5902    0.7340 C   0  0  0  0  0  0  0  0  0  0  0  0
    1.7631    1.4361   -0.4314 C   0  0  0  0  0  0  0  0  0  0  0  0
    0.6865    2.1786   -0.5646 C   0  0  0  0  0  0  0  0  0  0  0  0
   -0.3500    2.1315    0.4893 C   0  0  0  0  0  2  0  0  0  0  0  0
   -1.5982    1.4359   -0.0027 C   0  0  0  0  0  0  0  0  0  0  0  0
   -1.6490    0.0456    0.6324 C   0  0  0  0  0  1  0  0  0  0  0  0
   -1.5240    1.1961   -1.5149 C   0  0  0  0  0  0  0  0  0  0  0  0
   -2.7794    0.5051   -1.9626 C   0  0  0  0  0  0  0  0  0  0  0  0
   -2.9651   -0.8348   -1.2697 C   0  0  0  0  0  0  0  0  0  0  0  0
   -4.2559   -1.4230   -1.8049 C   0  0  0  0  0  0  0  0  0  0  0  0
   -5.4059   -0.5364   -1.5168 C   0  0  0  0  0  0  0  0  0  0  0  0
   -6.3139    0.1436   -1.2850 N   0  0  0  0  0  0  0  0  0  0  0  0
  1  2  2  0
  2  3  1  0
  3  4  2  3
  4  5  1  0
  4  6  1  0
  6  7  2  3
  7  8  1  0
  8  9  2  3
  9 10  1  0
 10 11  1  0
 11 12  1  0
 11 13  1  0
 13 14  1  0
 14 15  1  0
 15 16  1  0
 16 17  1  0
 17 18  3  0
M  RAD  2  10   3  12   2
M  END
$$$$
