
     RDKit          3D

 39 42  0  0  0  0  0  0  0  0999 V2000
   -4.8475    3.2460   -2.3703 C   0  0  0  0  0  0  0  0  0  0  0  0
   -5.3019    2.3303   -1.2837 C   0  0  1  0  0  0  0  0  0  0  0  0
   -5.8365    1.0763   -1.8738 C   0  0  0  0  0  0  0  0  0  0  0  0
   -6.2379    0.0332   -0.8648 C   0  0  2  0  0  0  0  0  0  0  0  0
   -7.3243    0.5601   -0.1449 O   0  0  0  0  0  0  0  0  0  0  0  0
   -5.0971   -0.1101    0.1167 C   0  0  2  0  0  0  0  0  0  0  0  0
   -5.0967   -1.2382    0.8494 O   0  0  0  0  0  0  0  0  0  0  0  0
   -4.9294    1.1763    0.8141 C   0  0  1  0  0  0  0  0  0  0  0  0
   -4.3058    1.1666    2.0143 O   0  0  0  0  0  0  0  0  0  0  0  0
   -4.2974    2.1443   -0.1955 C   0  0  1  0  0  0  0  0  0  0  0  0
   -3.0198    1.6536   -0.6532 N   0  0  0  0  0  0  0  0  0  0  0  0
   -2.8403    0.2542   -0.5392 C   0  0  1  0  0  0  0  0  0  0  0  0
   -3.0322   -0.4853   -1.8715 C   0  0  0  0  0  0  0  0  0  0  0  0
   -3.9002   -1.6887   -1.4737 C   0  0  1  0  0  0  0  0  0  0  0  0
   -3.8721   -2.6354   -2.5188 O   0  0  0  0  0  0  0  0  0  0  0  0
   -3.3023   -2.2521   -0.3113 N   0  0  0  0  0  0  0  0  0  0  0  0
   -3.9073   -1.9211    0.9264 C   0  0  1  0  0  0  0  0  0  0  0  0
   -3.0187   -1.2745    1.9209 C   0  0  1  0  0  0  0  0  0  0  0  0
   -2.8178   -2.1787    2.9864 O   0  0  0  0  0  0  0  0  0  0  0  0
   -1.7252   -0.7780    1.4648 C   0  0  2  0  0  0  0  0  0  0  0  0
   -1.2707    0.1958    2.3858 O   0  0  0  0  0  0  0  0  0  0  0  0
   -1.6140   -0.2178    0.1125 C   0  0  1  0  0  0  0  0  0  0  0  0
   -0.8886   -1.1297   -0.6895 O   0  0  0  0  0  0  0  0  0  0  0  0
    0.1979   -1.5270   -0.0729 O   0  0  0  0  0  0  0  0  0  0  0  0
    1.2420   -1.5820   -0.8650 O   0  0  0  0  0  0  0  0  0  0  0  0
    2.3433   -1.8797   -0.0551 C   0  0  0  0  0  0  0  0  0  0  0  0
    2.4332   -0.8331    0.8783 O   0  0  0  0  0  0  0  0  0  0  0  0
    2.6149    0.3830    0.2269 C   0  0  0  0  0  3  0  0  0  0  0  0
    3.9747    0.5118   -0.1065 O   0  0  0  0  0  0  0  0  0  0  0  0
    4.6991   -0.2898    0.7771 C   0  0  0  0  0  3  0  0  0  0  0  0
    6.0133   -0.4613    0.3567 O   0  0  0  0  0  0  0  0  0  0  0  0
    6.1227   -0.1554   -0.9983 C   0  0  2  0  0  0  0  0  0  0  0  0
    7.5288   -0.3325   -1.4749 N   0  0  0  0  0  0  0  0  0  0  0  0
    7.0074    0.9858   -1.3914 C   0  0  2  0  0  0  0  0  0  0  0  0
    7.2841    1.9350   -0.4978 O   0  0  0  0  0  0  0  0  0  0  0  0
    7.9209    1.6796    0.6385 C   0  0  0  0  0  0  0  0  0  0  0  0
    9.2962    1.2306    0.5904 C   0  0  2  0  0  0  0  0  0  0  0  0
   10.2499    2.3470    0.1966 C   0  0  0  0  0  0  0  0  0  0  0  0
    9.5553    0.0609   -0.0484 O   0  0  0  0  0  0  0  0  0  0  0  0
  2  1  1  6
  2  3  1  0
  3  4  1  0
  4  5  1  1
  4  6  1  0
  6  7  1  1
  6  8  1  0
  8  9  1  1
  8 10  1  0
 10 11  1  6
 11 12  1  0
 12 13  1  6
 13 14  1  0
 14 15  1  6
 14 16  1  0
 17 16  1  6
 17 18  1  0
 18 19  1  1
 18 20  1  0
 20 21  1  1
 20 22  1  0
 22 23  1  6
 23 24  1  0
 24 25  1  0
 25 26  1  0
 26 27  1  0
 27 28  1  0
 28 29  1  0
 29 30  1  0
 30 31  1  0
 32 31  1  1
 32 33  1  0
 32 34  1  0
 34 35  1  1
 35 36  1  0
 36 37  1  0
 37 38  1  6
 37 39  1  0
 10  2  1  0
 17  7  1  0
 22 12  1  0
 34 33  1  0
M  RAD  2  28   2  30   2
M  END
$$$$
