
     RDKit          3D

 22 24  0  0  0  0  0  0  0  0999 V2000
   -2.3777    1.0520    0.1781 C   0  0  0  0  0  0  0  0  0  0  0  0
   -2.7023    2.0552    1.1313 O   0  0  0  0  0  0  0  0  0  0  0  0
   -2.6656    3.4127    0.8122 C   0  0  0  0  0  0  0  0  0  0  0  0
   -1.5951    3.8434    0.2043 C   0  0  0  0  0  0  0  0  0  0  0  0
   -0.4504    3.0400   -0.1648 C   0  0  0  0  0  0  0  0  0  0  0  0
   -0.1332    1.8950    0.0578 C   0  0  0  0  0  0  0  0  0  0  0  0
    0.4295    0.6581    0.1732 C   0  0  0  0  0  0  0  0  0  0  0  0
    1.8213    0.2089   -0.0361 C   0  0  0  0  0  0  0  0  0  0  0  0
    2.3845   -0.7354    0.8265 C   0  0  0  0  0  0  0  0  0  0  0  0
    3.6723   -1.2032    0.6833 C   0  0  0  0  0  0  0  0  0  0  0  0
    4.4581   -0.7266   -0.3565 C   0  0  0  0  0  0  0  0  0  0  0  0
    6.1075   -1.3374   -0.5248 Cl  0  0  0  0  0  0  0  0  0  0  0  0
    3.9302    0.1947   -1.2092 C   0  0  0  0  0  0  0  0  0  0  0  0
    2.6418    0.6423   -1.0406 C   0  0  0  0  0  0  0  0  0  0  0  0
   -0.3762   -0.3699    0.5481 C   0  0  0  0  0  0  0  0  0  0  0  0
    0.1376   -1.6830    0.6892 N   0  0  0  0  0  0  0  0  0  0  0  0
   -0.4485   -2.6683    1.5598 C   0  0  0  0  0  0  0  0  0  0  0  0
   -1.8121   -0.1829    0.8255 C   0  0  0  0  0  0  0  0  0  0  0  0
   -2.6199   -1.4188    0.6262 C   0  0  0  0  0  0  0  0  0  0  0  0
   -2.8060   -1.8166   -0.8069 C   0  0  0  0  0  0  0  0  0  0  0  0
   -3.5896   -3.0164   -1.0920 C   0  0  0  0  0  0  0  0  0  0  0  0
   -4.0061   -1.8438   -1.5278 C   0  0  0  0  0  0  0  0  0  0  0  0
  1  2  1  0
  2  3  1  0
  3  4  2  3
  4  5  1  0
  5  6  2  3
  6  7  1  0
  7  8  1  0
  8  9  2  0
  9 10  1  0
 10 11  2  0
 11 12  1  0
 11 13  1  0
 13 14  2  0
  7 15  2  3
 15 16  1  0
 16 17  1  0
 15 18  1  0
 18 19  1  0
 19 20  1  0
 20 21  1  0
 21 22  2  0
 18  1  1  0
 14  8  1  0
 22 20  1  0
M  END
$$$$
