
     RDKit          3D

 31 33  0  0  0  0  0  0  0  0999 V2000
   -3.7265    1.8574    4.3845 C   0  0  0  0  0  0  0  0  0  0  0  0
   -4.5245    0.9832    3.6181 O   0  0  0  0  0  0  0  0  0  0  0  0
   -4.0472    0.4196    2.4266 C   0  0  0  0  0  0  0  0  0  0  0  0
   -2.7765    0.7216    1.9913 C   0  0  0  0  0  0  0  0  0  0  0  0
   -2.2898    0.1626    0.8003 C   0  0  0  0  0  0  0  0  0  0  0  0
   -3.1332   -0.6779    0.1172 C   0  0  0  0  0  0  0  0  0  0  0  0
   -4.4248   -0.9759    0.5733 C   0  0  0  0  0  0  0  0  0  0  0  0
   -4.8921   -0.4215    1.7436 C   0  0  0  0  0  0  0  0  0  0  0  0
   -6.2550   -0.7016    2.2777 C   0  0  0  0  0  0  0  0  0  0  0  0
   -2.6440   -1.2938   -1.1632 C   0  0  0  0  0  0  0  0  0  0  0  0
   -3.8388   -1.6317   -2.0441 C   0  0  0  0  0  0  0  0  0  0  0  0
   -4.6664   -0.3617   -2.1648 C   0  0  0  0  0  0  0  0  0  0  0  0
   -3.7210    0.8064   -2.0913 C   0  0  0  0  0  0  0  0  0  0  0  0
   -2.4710    0.6800   -2.4627 C   0  0  0  0  0  0  0  0  0  0  0  0
   -1.4468    1.6667   -2.4611 C   0  0  0  0  0  0  0  0  0  0  0  0
   -0.7663    2.1604   -1.4751 C   0  0  0  0  0  0  0  0  0  0  0  0
   -0.8422    1.8630   -0.1073 N   0  0  0  0  0  0  0  0  0  0  0  0
   -0.9127    0.4953    0.3406 C   0  0  2  0  0  0  0  0  0  0  0  0
   -0.4682   -0.4370   -0.7479 C   0  0  0  0  0  0  0  0  0  0  0  0
    0.8892   -0.1828   -1.2470 C   0  0  0  0  0  0  0  0  0  0  0  0
    1.6106    0.7840   -0.7096 C   0  0  0  0  0  0  0  0  0  0  0  0
    2.9190    0.9938   -1.2249 N   0  0  0  0  0  0  0  0  0  0  0  0
    3.7378   -0.1805   -1.4538 C   0  0  0  0  0  0  0  0  0  0  0  0
    4.1114   -0.8240   -0.1710 C   0  0  0  0  0  0  0  0  0  0  0  0
    5.3834   -0.9568    0.1678 C   0  0  0  0  0  0  0  0  0  0  0  0
    6.4333   -0.4528   -0.7541 C   0  0  0  0  0  0  0  0  0  0  0  0
    7.6071    0.1527   -0.0550 C   0  0  0  0  0  0  0  0  0  0  0  0
    7.9670   -0.5427    1.2338 C   0  0  0  0  0  0  0  0  0  0  0  0
    6.7746   -0.7205    2.1382 C   0  0  0  0  0  0  0  0  0  0  0  0
    5.7562   -1.6033    1.4539 C   0  0  1  0  0  0  0  0  0  0  0  0
    4.6576   -1.7819    2.2812 O   0  0  0  0  0  0  0  0  0  0  0  0
  1  2  1  0
  2  3  1  0
  3  4  2  0
  4  5  1  0
  5  6  2  0
  6  7  1  0
  7  8  2  0
  8  9  1  0
  6 10  1  0
 10 11  1  0
 11 12  1  0
 12 13  1  0
 13 14  2  3
 14 15  1  0
 15 16  2  3
 16 17  1  0
 17 18  1  0
 18 19  1  6
 19 20  1  0
 20 21  2  3
 21 22  1  0
 22 23  1  0
 23 24  1  0
 24 25  2  3
 25 26  1  0
 26 27  1  0
 27 28  1  0
 28 29  1  0
 29 30  1  0
 30 31  1  1
  8  3  1  0
 18  5  1  0
 30 25  1  0
M  END
$$$$
