
     RDKit          3D

  3  3  0  0  0  0  0  0  0  0999 V2000
   -0.4341   -0.6710    0.0714 O   0  0  0  0  0  0  0  0  0  0  0  0
   -0.3829    0.7252   -0.2185 N   0  0  0  0  0  0  0  0  0  0  0  0
    0.8170   -0.0542   -0.1356 C   0  0  0  0  0  3  0  0  0  0  0  0
  1  2  1  0
  2  3  1  0
  3  1  1  0
M  RAD  1   3   2
M  END
$$$$
