
     RDKit          3D

 14 14  0  0  0  0  0  0  0  0999 V2000
   -3.5593   -1.2482   -0.7449 C   0  0  0  0  0  0  0  0  0  0  0  0
   -4.8494   -0.8996   -0.2119 N   0  0  0  0  0  0  0  0  0  0  0  0
   -4.6933    0.3122    0.3765 O   0  0  0  0  0  0  0  0  0  0  0  0
   -3.5522    0.8434   -0.1410 N   0  0  0  0  0  0  0  0  0  0  0  0
   -2.7617   -0.1948   -0.7065 C   0  0  0  0  0  0  0  0  0  0  0  0
   -1.0614   -0.0599   -1.2368 S   0  0  0  0  0  0  0  0  0  0  0  0
   -0.4889    1.5704   -0.9593 N   0  0  0  0  0  0  0  0  0  0  0  0
    0.8076    1.6808    0.1893 S   0  0  0  0  0  0  0  0  0  0  0  0
    1.2110    0.1257    0.9930 C   0  0  0  0  0  0  0  0  0  0  0  0
    1.7678   -0.8585    0.0187 C   0  0  0  0  0  0  0  0  0  0  0  0
    2.9690   -0.4223   -0.6289 N   0  0  0  0  0  0  0  0  0  0  0  0
    4.0280   -0.3400    0.0015 N   0  0  0  0  0  4  0  0  0  0  0  0
    5.0973    0.0309    0.5662 C   0  0  0  0  0  0  0  0  0  0  0  0
    5.0853    0.1413    2.4842 Br  0  0  0  0  0  0  0  0  0  0  0  0
  1  2  1  0
  2  3  1  0
  3  4  1  0
  4  5  1  0
  5  6  1  0
  6  7  1  0
  7  8  1  0
  8  9  1  0
  9 10  1  0
 10 11  1  0
 11 12  2  0
 12 13  2  0
 13 14  1  0
  1  5  2  0
M  CHG  1  12   1
M  END
$$$$
