
     RDKit          3D

 13 13  0  0  0  0  0  0  0  0999 V2000
   -2.1682    2.9436   -0.3061 Cl  0  0  0  0  0  0  0  0  0  0  0  0
   -2.7986    2.0121    1.0419 N   0  0  0  0  0  2  0  0  0  0  0  0
   -3.4384    0.9190    0.5666 O   0  0  0  0  0  0  0  0  0  0  0  0
   -3.0685    0.6106   -0.6729 O   0  0  0  0  0  0  0  0  0  0  0  0
   -3.0563   -0.7046   -1.1160 C   0  0  0  0  0  0  0  0  0  0  0  0
   -2.0361   -1.5220   -0.9087 C   0  0  0  0  0  0  0  0  0  0  0  0
   -0.6420   -0.8928   -0.0294 S   0  0  0  0  0  2  0  0  0  0  0  0
    0.2717   -2.1005    0.8163 N   0  0  0  0  0  0  0  0  0  0  0  0
    1.6906   -2.0149    0.6334 C   0  0  0  0  0  3  0  0  0  0  0  0
    2.1668   -0.3477    0.1569 S   0  0  0  0  0  0  0  0  0  0  0  0
    3.9338   -0.2877   -0.0590 N   0  0  0  0  0  0  0  0  0  0  0  0
    4.5073    1.0054   -0.3616 C   0  0  0  0  0  3  0  0  0  0  0  0
    4.6378    0.3794    0.9228 O   0  0  0  0  0  0  0  0  0  0  0  0
  1  2  1  0
  2  3  1  0
  3  4  1  0
  4  5  1  0
  5  6  2  3
  6  7  1  0
  7  8  1  0
  8  9  1  0
  9 10  1  0
 10 11  1  0
 11 12  1  0
 12 13  1  0
 13 11  1  0
M  CHG  2   2   1   7   1
M  RAD  4   2   3   7   2   9   2  12   2
M  END
$$$$
