
     RDKit          3D

 73 77  0  0  0  0  0  0  0  0999 V2000
   -3.1549    2.6307   -2.3702 C   0  0  0  0  0  0  0  0  0  0  0  0
   -4.4725    3.0354   -2.2504 O   0  0  0  0  0  0  0  0  0  0  0  0
   -5.2816    1.9181   -2.4786 C   0  0  0  0  0  3  0  0  0  0  0  0
   -5.3817    1.1037   -1.3529 O   0  0  0  0  0  0  0  0  0  0  0  0
   -6.1911    1.6672   -0.3652 C   0  0  2  0  0  0  0  0  0  0  0  0
   -6.3879    3.1408   -0.6670 C   0  0  0  0  0  0  0  0  0  0  0  0
   -5.5551    1.5115    0.8612 O   0  0  0  0  0  0  0  0  0  0  0  0
   -6.4629    1.2991    1.9013 C   0  0  1  0  0  0  0  0  0  0  0  0
   -7.7491    1.6316    1.4766 O   0  0  0  0  0  0  0  0  0  0  0  0
   -8.6660    0.7545    2.0453 C   0  0  0  0  0  2  0  0  0  0  0  0
   -6.4275   -0.0218    2.3321 O   0  0  0  0  0  0  0  0  0  0  0  0
   -5.5526   -0.1223    3.4244 C   0  0  2  0  0  0  0  0  0  0  0  0
   -4.3205    0.6786    3.0744 C   0  0  0  0  0  2  0  0  0  0  0  0
   -5.2367   -1.4633    3.6706 O   0  0  0  0  0  0  0  0  0  0  0  0
   -4.7665   -1.9995    2.4798 C   0  0  0  0  0  3  0  0  0  0  0  0
   -3.3837   -2.6187    2.6374 C   0  0  0  0  0  0  0  0  0  0  0  0
   -3.4969   -4.1283    2.5588 C   0  0  0  0  0  3  0  0  0  0  0  0
   -2.4169   -4.7779    3.1287 O   0  0  0  0  0  0  0  0  0  0  0  0
   -1.5666   -5.2414    2.2222 O   0  0  0  0  0  0  0  0  0  0  0  0
   -0.4260   -4.4705    2.3268 C   0  0  0  0  0  3  0  0  0  0  0  0
    0.6052   -4.7394    1.2802 C   0  0  2  0  0  0  0  0  0  0  0  0
    0.0851   -5.3681    0.0299 C   0  0  2  0  0  0  0  0  0  0  0  0
    0.6764   -4.7060   -1.0564 O   0  0  0  0  0  0  0  0  0  0  0  0
    1.3867   -5.5242   -1.8026 O   0  0  0  0  0  0  0  0  0  0  0  0
    1.8072   -5.4315    1.8577 C   0  0  0  0  0  3  0  0  0  0  0  0
    2.5475   -4.4889    2.6294 O   0  0  0  0  0  0  0  0  0  0  0  0
    3.6170   -3.7723    2.1045 C   0  0  0  0  0  0  0  0  0  0  0  0
    3.9851   -4.0569    0.8765 C   0  0  0  0  0  0  0  0  0  0  0  0
    5.0673   -3.3779    0.1388 C   0  0  2  0  0  0  0  0  0  0  0  0
    5.3963   -4.2514   -1.0658 C   0  0  0  0  0  3  0  0  0  0  0  0
    5.1172   -3.6127   -2.2643 O   0  0  0  0  0  0  0  0  0  0  0  0
    3.8048   -3.1579   -2.2662 C   0  0  0  0  0  3  0  0  0  0  0  0
    3.1954   -3.4312   -3.4972 O   0  0  0  0  0  0  0  0  0  0  0  0
    3.1625   -2.3559   -4.2600 O   0  0  0  0  0  0  0  0  0  0  0  0
    2.0985   -1.5263   -3.9368 C   0  0  0  0  0  3  0  0  0  0  0  0
    0.9429   -2.2200   -3.6144 O   0  0  0  0  0  0  0  0  0  0  0  0
    0.0210   -2.2328   -4.6673 C   0  0  0  0  0  3  0  0  0  0  0  0
   -0.6408   -1.0042   -4.7866 O   0  0  0  0  0  0  0  0  0  0  0  0
   -1.8428   -0.9907   -4.0815 C   0  0  0  0  0  3  0  0  0  0  0  0
   -1.7209   -0.0134   -3.0853 O   0  0  0  0  0  0  0  0  0  0  0  0
   -2.9253    0.1277   -2.3771 C   0  0  2  0  0  0  0  0  0  0  0  0
   -2.8253    1.4091   -1.5622 C   0  0  0  0  0  0  0  0  0  0  0  0
   -2.9222   -0.9105   -1.4309 O   0  0  0  0  0  0  0  0  0  0  0  0
   -1.6647   -0.8346   -0.8102 C   0  0  0  0  0  3  0  0  0  0  0  0
   -0.9638   -2.1432   -1.1557 C   0  0  0  0  0  0  0  0  0  0  0  0
   -1.6051   -3.2056   -0.3059 C   0  0  2  0  0  0  0  0  0  0  0  0
   -1.7965   -4.4048   -0.9684 O   0  0  0  0  0  0  0  0  0  0  0  0
   -1.4109   -5.4096   -0.0661 C   0  0  0  0  0  3  0  0  0  0  0  0
   -2.8376   -2.7120    0.4019 C   0  0  0  0  0  3  0  0  0  0  0  0
   -2.5146   -2.1501    1.6397 O   0  0  0  0  0  0  0  0  0  0  0  0
    6.2315   -3.2580    0.8817 O   0  0  0  0  0  0  0  0  0  0  0  0
    6.1582   -2.2866    1.8653 C   0  0  0  0  0  3  0  0  0  0  0  0
    7.5833   -2.0068    2.3173 C   0  0  0  0  0  3  0  0  0  0  0  0
    8.1690   -1.0495    1.4864 O   0  0  0  0  0  0  0  0  0  0  0  0
    7.4929    0.0859    1.6753 O   0  0  0  0  0  0  0  0  0  0  0  0
    8.1095    1.3276    1.6846 C   0  0  0  0  0  0  0  0  0  0  0  0
    7.4367    2.3280    2.1770 C   0  0  0  0  0  0  0  0  0  0  0  0
    7.7312    3.5601    1.9182 C   0  0  0  0  0  0  0  0  0  0  0  0
    6.4681    4.7409    1.5136 S   0  0  0  0  0  0  0  0  0  0  0  0
    6.1838    5.7776    2.8539 O   0  0  0  0  0  0  0  0  0  0  0  0
    4.8443    6.1873    2.8760 C   0  0  0  0  0  3  0  0  0  0  0  0
    4.4947    6.8151    1.6888 O   0  0  0  0  0  0  0  0  0  0  0  0
    3.4428    7.6284    1.9125 N   0  0  0  0  0  0  0  0  0  0  0  0
    2.2601    7.1198    1.2352 C   0  0  0  0  0  3  0  0  0  0  0  0
    1.2076    7.9855    1.5334 O   0  0  0  0  0  0  0  0  0  0  0  0
    0.5847    8.4068    0.3685 C   0  0  0  0  0  0  0  0  0  0  0  0
   -0.1235    7.3281   -0.1565 O   0  0  0  0  0  0  0  0  0  0  0  0
    0.0574    7.2953   -1.5419 C   0  0  0  0  0  3  0  0  0  0  0  0
   -1.2625    6.9593   -2.1803 C   0  0  0  0  0  3  0  0  0  0  0  0
   -1.2176    5.6342   -2.5759 O   0  0  0  0  0  0  0  0  0  0  0  0
   -2.3092    4.9332   -2.1567 N   0  0  0  0  0  0  0  0  0  0  0  0
   -2.0212    3.5425   -2.3914 C   0  0  2  0  0  0  0  0  0  0  0  0
   -2.4710    2.9132   -3.5381 O   0  0  0  0  0  0  0  0  0  0  0  0
  1  2  1  0
  2  3  1  0
  3  4  1  0
  4  5  1  0
  5  6  1  6
  5  7  1  0
  7  8  1  0
  8  9  1  6
  9 10  1  0
  8 11  1  0
 11 12  1  0
 12 13  1  6
 12 14  1  0
 14 15  1  0
 15 16  1  0
 16 17  1  0
 17 18  1  0
 18 19  1  0
 19 20  1  0
 21 20  1  1
 21 22  1  0
 22 23  1  6
 23 24  1  0
 21 25  1  0
 25 26  1  0
 26 27  1  0
 27 28  2  3
 28 29  1  0
 29 30  1  0
 30 31  1  0
 31 32  1  0
 32 33  1  0
 33 34  1  0
 34 35  1  0
 35 36  1  0
 36 37  1  0
 37 38  1  0
 38 39  1  0
 39 40  1  0
 40 41  1  0
 41 42  1  1
 41 43  1  0
 43 44  1  0
 44 45  1  0
 46 45  1  6
 46 47  1  0
 47 48  1  0
 46 49  1  0
 49 50  1  0
 29 51  1  1
 51 52  1  0
 52 53  1  0
 53 54  1  0
 54 55  1  0
 55 56  1  0
 56 57  2  0
 57 58  2  0
 58 59  1  0
 59 60  1  0
 60 61  1  0
 61 62  1  0
 62 63  1  0
 63 64  1  0
 64 65  1  0
 65 66  1  0
 66 67  1  0
 67 68  1  0
 68 69  1  0
 69 70  1  0
 70 71  1  0
 72 71  1  6
 72 73  1  0
 42  1  1  0
 72  1  1  0
 73  1  1  0
 50 16  1  0
 48 22  1  0
M  RAD  8   3   2  10   3  13   3  15   2  17   2  20   2  25   2  30   2
M  RAD  8  32   2  35   2  37   2  39   2  44   2  48   2  49   2  52   2
M  RAD  5  53   2  61   2  64   2  68   2  69   2
M  END
$$$$
