
     RDKit          3D

 23 26  0  0  0  0  0  0  0  0999 V2000
    2.3952   -2.4057    1.3573 C   0  0  0  0  0  0  0  0  0  0  0  0
    2.1450   -0.9022    1.1945 C   0  0  1  0  0  0  0  0  0  0  0  0
    3.3147   -0.3653    0.3959 C   0  0  0  0  0  0  0  0  0  0  0  0
    2.9579    0.8143   -0.4428 C   0  0  2  0  0  0  0  0  0  0  0  0
    2.7317    1.9744    0.2672 O   0  0  0  0  0  0  0  0  0  0  0  0
    1.8791    0.5268   -1.4572 C   0  0  2  0  0  0  0  0  0  0  0  0
    0.8646    1.4955   -1.4225 O   0  0  0  0  0  0  0  0  0  0  0  0
    1.2670   -0.8178   -1.0777 C   0  0  1  0  0  0  0  0  0  0  0  0
    2.2399   -1.8035   -1.2534 O   0  0  0  0  0  0  0  0  0  0  0  0
    0.9021   -0.7048    0.4006 C   0  0  1  0  0  0  0  0  0  0  0  0
   -0.1470   -1.6375    0.6867 N   0  0  0  0  0  0  0  0  0  0  0  0
   -1.2883   -1.0295    1.3321 C   0  0  1  0  0  0  0  0  0  0  0  0
   -0.7086    0.0442    2.2755 C   0  0  0  0  0  0  0  0  0  0  0  0
   -1.5090    1.3045    1.9335 C   0  0  0  0  0  3  0  0  0  0  0  0
   -2.8827    1.0392    1.9636 O   0  0  0  0  0  0  0  0  0  0  0  0
   -0.9612    2.0911    0.4353 S   0  0  0  0  0  0  0  0  0  0  0  0
   -0.2689    1.0505   -0.8085 C   0  0  1  0  0  0  0  0  0  0  0  0
   -1.2798    0.4303   -1.7505 C   0  0  1  0  0  0  0  0  0  0  0  0
   -0.7112   -0.0915   -2.8816 O   0  0  0  0  0  0  0  0  0  0  0  0
   -2.1397   -0.6164   -1.0149 C   0  0  2  0  0  0  0  0  0  0  0  0
   -3.4472   -0.4140   -1.5144 O   0  0  0  0  0  0  0  0  0  0  0  0
   -2.1031   -0.1851    0.3824 C   0  0  1  0  0  0  0  0  0  0  0  0
   -3.2502    0.2023    0.9989 O   0  0  0  0  0  0  0  0  0  0  0  0
  2  1  1  6
  2  3  1  0
  3  4  1  0
  4  5  1  1
  4  6  1  0
  6  7  1  1
  6  8  1  0
  8  9  1  1
  8 10  1  0
 10 11  1  1
 12 11  1  6
 12 13  1  0
 13 14  1  0
 14 15  1  0
 14 16  1  0
 16 17  1  0
 17 18  1  0
 18 19  1  6
 18 20  1  0
 20 21  1  6
 20 22  1  0
 22 23  1  1
 10  2  1  0
 17  7  1  6
 22 12  1  0
 23 15  1  0
M  RAD  1  14   2
M  END
$$$$
