
     RDKit          3D

 25 26  0  0  0  0  0  0  0  0999 V2000
    1.5843    1.8862   -1.6619 C   0  0  0  0  0  0  0  0  0  0  0  0
    2.3926    0.6442   -1.5195 C   0  0  1  0  0  0  0  0  0  0  0  0
    3.8331    0.8309   -1.2274 C   0  0  0  0  0  0  0  0  0  0  0  0
    4.2885    0.4894    0.1449 C   0  0  2  0  0  0  0  0  0  0  0  0
    5.4999   -0.2311    0.0147 O   0  0  0  0  0  0  0  0  0  0  0  0
    3.3632   -0.3569    0.9499 C   0  0  2  0  0  0  0  0  0  0  0  0
    4.0544   -0.9932    1.9528 O   0  0  0  0  0  0  0  0  0  0  0  0
    2.7033   -1.3380   -0.0305 C   0  0  1  0  0  0  0  0  0  0  0  0
    2.0154   -2.3179    0.6460 O   0  0  0  0  0  0  0  0  0  0  0  0
    1.7215   -0.4895   -0.8189 C   0  0  1  0  0  0  0  0  0  0  0  0
    0.8032    0.0690    0.1780 N   0  0  0  0  0  0  0  0  0  0  0  0
   -0.2008    0.8369   -0.4919 C   0  0  0  0  0  3  0  0  0  0  0  0
   -1.5762    0.5512    0.0706 C   0  0  0  0  0  0  0  0  0  0  0  0
   -1.5505    0.9014    1.5441 C   0  0  0  0  0  0  0  0  0  0  0  0
   -1.1978    2.2196    1.7799 O   0  0  0  0  0  0  0  0  0  0  0  0
    0.0604    2.5530    1.2998 C   0  0  0  0  0  0  0  0  0  0  0  0
   -2.4888    1.3402   -0.6234 O   0  0  0  0  0  0  0  0  0  0  0  0
   -3.6775    1.3280   -0.0788 O   0  0  0  0  0  0  0  0  0  0  0  0
   -4.0068    0.1321    0.5359 C   0  0  1  0  0  0  0  0  0  0  0  0
   -5.4026    0.0368    0.5846 O   0  0  0  0  0  0  0  0  0  0  0  0
   -3.4135   -0.9983   -0.2792 C   0  0  2  0  0  0  0  0  0  0  0  0
   -3.9044   -2.2433    0.1062 O   0  0  0  0  0  0  0  0  0  0  0  0
   -1.8989   -0.9098   -0.1434 C   0  0  1  0  0  0  0  0  0  0  0  0
   -1.3530   -1.3413   -1.3388 O   0  0  0  0  0  0  0  0  0  0  0  0
   -1.6491   -2.5997   -1.4897 O   0  0  0  0  0  0  0  0  0  0  0  0
  2  1  1  1
  2  3  1  0
  3  4  1  0
  4  5  1  6
  4  6  1  0
  6  7  1  1
  6  8  1  0
  8  9  1  1
  8 10  1  0
 10 11  1  1
 11 12  1  0
 12 13  1  0
 13 14  1  0
 14 15  1  0
 15 16  1  0
 13 17  1  0
 17 18  1  0
 18 19  1  0
 19 20  1  6
 19 21  1  0
 21 22  1  1
 21 23  1  0
 23 24  1  6
 24 25  1  0
 10  2  1  0
 23 13  1  0
M  RAD  1  12   2
M  END
$$$$
