
     RDKit          3D

 45 48  0  0  0  0  0  0  0  0999 V2000
    6.1994    5.4196    1.0986 O   0  0  0  0  0  1  0  0  0  0  0  0
    5.2950    4.9448    0.1628 C   0  0  0  0  0  0  0  0  0  0  0  0
    4.4874    3.8609    0.7930 C   0  0  0  0  0  0  0  0  0  0  0  0
    4.5404    2.6703    0.2436 C   0  0  0  0  0  0  0  0  0  0  0  0
    3.7848    1.5762    0.8017 C   0  0  0  0  0  0  0  0  0  0  0  0
    3.8506    0.3864    0.2359 C   0  0  0  0  0  0  0  0  0  0  0  0
    4.6551    0.1937   -0.9050 N   0  0  0  0  0  0  0  0  0  0  0  0
    4.9609   -1.1032   -1.4522 C   0  0  0  0  0  0  0  0  0  0  0  0
    5.6528   -1.8623   -0.4200 N   0  0  0  0  0  0  0  0  0  0  0  0
    3.0892   -0.6862    0.8174 N   0  0  0  0  0  0  0  0  0  0  0  0
    1.7139   -0.6258    0.7006 N   0  0  0  0  0  0  0  0  0  0  0  0
    1.1210   -1.8143    0.1754 C   0  0  0  0  0  0  0  0  0  0  0  0
    1.6023   -2.1363   -1.1576 C   0  0  0  0  0  0  0  0  0  0  0  0
    2.1179   -3.1550   -1.7010 C   0  0  0  0  0  0  0  0  0  0  0  0
    2.3755   -4.3727   -1.0431 N   0  0  0  0  0  0  0  0  0  0  0  0
    1.6543   -5.4726   -1.3791 O   0  0  0  0  0  0  0  0  0  0  0  0
    1.5205   -6.3448   -0.2733 C   0  0  0  0  0  0  0  0  0  0  0  0
    0.8840   -5.5074    0.8252 C   0  0  0  0  0  0  0  0  0  0  0  0
    1.0070   -4.1157    0.6616 C   0  0  0  0  0  0  0  0  0  0  0  0
    1.3576   -3.0032    1.1252 C   0  0  0  0  0  0  0  0  0  0  0  0
    1.9356   -2.6132    2.3658 N   0  0  0  0  0  0  0  0  0  0  0  0
   -0.3076   -1.6689    0.1484 N   0  0  0  0  0  0  0  0  0  0  0  0
   -1.2045   -2.8296   -0.1933 C   0  0  0  0  0  0  0  0  0  0  0  0
   -2.6151   -2.3105    0.0753 C   0  0  0  0  0  0  0  0  0  0  0  0
   -3.0413   -1.4386   -0.8894 C   0  0  0  0  0  0  0  0  0  0  0  0
   -4.4276   -0.8875   -0.6273 C   0  0  0  0  0  0  0  0  0  0  0  0
   -4.5307   -0.3184    0.5960 C   0  0  0  0  0  0  0  0  0  0  0  0
   -3.3401   -0.3491    1.4152 N   0  0  0  0  0  0  0  0  0  0  0  0
   -2.1461   -0.3461    0.9147 C   0  0  0  0  0  0  0  0  0  0  0  0
   -1.0085   -0.4348    0.4382 C   0  0  0  0  0  0  0  0  0  0  0  0
   -0.2185    0.8407    0.0973 C   0  0  0  0  0  0  0  0  0  0  0  0
    0.3061    0.6496   -1.2964 C   0  0  0  0  0  0  0  0  0  0  0  0
    1.1089    1.8154   -1.7885 C   0  0  0  0  0  0  0  0  0  0  0  0
   -5.7134    0.3735    1.0881 C   0  0  0  0  0  0  0  0  0  0  0  0
   -5.3767    1.8043    1.5159 C   0  0  0  0  0  0  0  0  0  0  0  0
   -4.4172    2.4406    0.6535 N   0  0  0  0  0  0  0  0  0  0  0  0
   -3.1798    2.8178    1.1955 O   0  0  0  0  0  0  0  0  0  0  0  0
   -2.1305    1.9758    1.0198 C   0  0  0  0  0  0  0  0  0  0  0  0
   -1.3089    1.9098    0.0028 C   0  0  0  0  0  0  0  0  0  0  0  0
   -1.4207    2.7400   -1.0687 O   0  0  0  0  0  0  0  0  0  0  0  0
   -1.5953    4.1377   -1.0158 C   0  0  0  0  0  0  0  0  0  0  0  0
   -2.9706    4.4752   -0.5614 C   0  0  0  0  0  0  0  0  0  0  0  0
   -3.9964    3.6719   -1.3119 C   0  0  0  0  0  0  0  0  0  0  0  0
   -4.6748    2.7090   -0.7188 C   0  0  0  0  0  0  0  0  0  0  0  0
   -5.5961    1.9829   -1.3652 F   0  0  0  0  0  0  0  0  0  0  0  0
  1  2  1  0
  2  3  1  0
  3  4  2  3
  4  5  1  0
  5  6  2  3
  6  7  1  0
  7  8  1  0
  8  9  1  0
  6 10  1  0
 10 11  1  0
 11 12  1  0
 12 13  1  0
 13 14  2  3
 14 15  1  0
 15 16  1  0
 16 17  1  0
 17 18  1  0
 18 19  1  0
 19 20  2  3
 20 21  1  0
 12 22  1  0
 22 23  1  0
 23 24  1  0
 24 25  2  3
 25 26  1  0
 26 27  2  3
 27 28  1  0
 28 29  1  0
 29 30  2  3
 30 31  1  0
 31 32  1  0
 32 33  1  0
 27 34  1  0
 34 35  1  0
 35 36  1  0
 36 37  1  0
 37 38  1  0
 38 39  2  3
 39 40  1  0
 40 41  1  0
 41 42  1  0
 42 43  1  0
 43 44  2  3
 44 45  1  0
 20 12  1  0
 30 22  1  0
 39 31  1  0
 44 36  1  0
M  CHG  1   1  -1
M  END
$$$$
