
     RDKit          3D

 11 11  0  0  0  0  0  0  0  0999 V2000
    2.9125   -0.3796   -0.6527 O   0  0  0  0  0  0  0  0  0  0  0  0
    2.3692    0.7429   -0.0305 C   0  0  0  0  0  0  0  0  0  0  0  0
    0.9285    0.5750    0.3063 C   0  0  2  0  0  0  0  0  0  0  0  0
    0.6216   -0.4940    1.1840 N   0  0  0  0  0  0  0  0  0  0  0  0
   -0.2041   -1.5247    0.6531 C   0  0  0  0  0  0  0  0  0  0  0  0
   -1.4691   -1.0501    0.0094 C   0  0  2  0  0  0  0  0  0  0  0  0
   -1.9537   -2.0694   -0.8101 O   0  0  0  0  0  0  0  0  0  0  0  0
   -1.3408    0.2515   -0.7128 C   0  0  1  0  0  0  0  0  0  0  0  0
   -2.0099    1.2464   -0.0075 O   0  0  0  0  0  0  0  0  0  0  0  0
    0.0955    0.6729   -0.9179 C   0  0  1  0  0  0  0  0  0  0  0  0
    0.0504    2.0292   -1.3120 O   0  0  0  0  0  0  0  0  0  0  0  0
  1  2  1  0
  3  2  1  6
  3  4  1  0
  4  5  1  0
  5  6  1  0
  6  7  1  6
  6  8  1  0
  8  9  1  1
  8 10  1  0
 10 11  1  1
 10  3  1  0
M  END
$$$$
