
     RDKit          3D

 16 15  0  0  0  0  0  0  0  0999 V2000
    4.9148   -0.9642   -0.4656 N   0  0  0  0  0  0  0  0  0  0  0  0
    3.8005   -1.5733   -0.3609 C   0  0  0  0  0  0  0  0  0  0  0  0
    2.6392   -0.8128    0.2262 C   0  0  0  0  0  0  0  0  0  0  0  0
    3.0387    0.4344    0.7794 N   0  0  0  0  0  0  0  0  0  0  0  0
    2.8457    1.5914    0.3121 C   0  0  0  0  0  0  0  0  0  0  0  0
    2.2051    1.9409   -0.8438 O   0  0  0  0  0  0  0  0  0  0  0  0
    1.6352   -0.7926   -0.7068 O   0  0  0  0  0  0  0  0  0  0  0  0
    0.4186   -0.2689   -0.7089 N   0  0  0  0  0  0  0  0  0  0  0  0
   -0.6359   -0.5446   -0.0825 C   0  0  0  0  0  0  0  0  0  0  0  0
   -1.8405    0.3103   -0.3749 C   0  0  0  0  0  0  0  0  0  0  0  0
   -2.9319   -0.6392   -0.6245 N   0  0  0  0  0  0  0  0  0  0  0  0
   -3.2949   -1.5128    0.4142 C   0  0  0  0  0  0  0  0  0  0  0  0
   -2.7185   -1.5048    1.5364 O   0  0  0  0  0  0  0  0  0  0  0  0
   -2.1605    1.1998    0.8085 C   0  0  0  0  0  0  0  0  0  0  0  0
   -3.3761    2.0326    0.4571 C   0  0  0  0  0  0  0  0  0  0  0  0
   -4.5395    1.1038    0.1638 C   0  0  0  0  0  0  0  0  0  0  0  0
  1  2  2  0
  2  3  1  0
  3  4  1  0
  4  5  2  3
  5  6  1  0
  3  7  1  0
  7  8  1  0
  8  9  2  3
  9 10  1  0
 10 11  1  0
 11 12  1  0
 12 13  2  0
 10 14  1  0
 14 15  1  0
 15 16  1  0
M  END
$$$$
