
     RDKit          3D

 23 24  0  0  0  0  0  0  0  0999 V2000
    2.3013    1.8020    1.8831 C   0  0  0  0  0  0  0  0  0  0  0  0
    2.1214    1.5716    0.4087 C   0  0  1  0  0  0  0  0  0  0  0  0
    3.4140    1.5988   -0.3401 C   0  0  0  0  0  0  0  0  0  0  0  0
    4.1019    0.2385   -0.3696 C   0  0  2  0  0  0  0  0  0  0  0  0
    5.2946    0.4244   -1.0743 O   0  0  0  0  0  0  0  0  0  0  0  0
    3.1419   -0.6720   -1.1278 C   0  0  2  0  0  0  0  0  0  0  0  0
    2.8506   -0.0241   -2.3201 O   0  0  0  0  0  0  0  0  0  0  0  0
    1.9355   -0.8492   -0.2541 C   0  0  1  0  0  0  0  0  0  0  0  0
    2.2667   -1.6125    0.8485 O   0  0  0  0  0  0  0  0  0  0  0  0
    1.2243    0.4248    0.0741 C   0  0  1  0  0  0  0  0  0  0  0  0
    0.3458    0.2158    1.2183 N   0  0  0  0  0  0  0  0  0  0  0  0
   -0.7255   -0.7010    0.9311 C   0  0  1  0  0  0  0  0  0  0  0  0
   -1.9781   -0.4446    1.7109 C   0  0  0  0  0  0  0  0  0  0  0  0
   -2.8544    0.6277    1.1654 C   0  0  0  0  0  0  0  0  0  0  0  0
   -2.2141    1.7985    0.8363 O   0  0  0  0  0  0  0  0  0  0  0  0
   -3.8750    0.1702    0.1753 C   0  0  2  0  0  0  0  0  0  0  0  0
   -4.7623   -0.7283    0.7385 O   0  0  0  0  0  0  0  0  0  0  0  0
   -3.2935   -0.3011   -1.1277 C   0  0  1  0  0  0  0  0  0  0  0  0
   -2.6496    0.7821   -1.7318 O   0  0  0  0  0  0  0  0  0  0  0  0
   -2.3304   -1.4211   -0.8170 C   0  0  2  0  0  0  0  0  0  0  0  0
   -2.7566   -2.2070    0.2464 O   0  0  0  0  0  0  0  0  0  0  0  0
   -0.9503   -0.9032   -0.5381 C   0  0  1  0  0  0  0  0  0  0  0  0
   -0.6080    0.2098   -1.2823 O   0  0  0  0  0  0  0  0  0  0  0  0
  2  1  1  1
  2  3  1  0
  3  4  1  0
  4  5  1  6
  4  6  1  0
  6  7  1  6
  6  8  1  0
  8  9  1  1
  8 10  1  0
 10 11  1  1
 12 11  1  6
 12 13  1  0
 13 14  1  0
 14 15  1  0
 14 16  1  0
 16 17  1  1
 16 18  1  0
 18 19  1  1
 18 20  1  0
 20 21  1  1
 20 22  1  0
 22 23  1  6
 10  2  1  0
 22 12  1  0
M  END
$$$$
