
     RDKit          3D

 28 28  0  0  0  0  0  0  0  0999 V2000
    8.8154    0.4073   -0.8281 C   0  0  0  0  0  0  0  0  0  0  0  0
    7.5888   -0.3964   -0.9256 C   0  0  0  0  0  0  0  0  0  0  0  0
    6.5968    0.0259   -1.9235 C   0  0  0  0  0  0  0  0  0  0  0  0
    7.1049   -0.9717    0.3473 C   0  0  0  0  0  0  0  0  0  0  0  0
    5.8432   -1.7719    0.2086 C   0  0  0  0  0  0  0  0  0  0  0  0
    4.7314   -0.8776   -0.2671 C   0  0  0  0  0  0  0  0  0  0  0  0
    4.3893    0.2325    0.6855 C   0  0  1  0  0  0  0  0  0  0  0  0
    5.5116    1.1753    0.9948 C   0  0  0  0  0  0  0  0  0  0  0  0
    3.1545    0.9427    0.1934 C   0  0  0  0  0  3  0  0  0  0  0  0
    2.0178   -0.0468    0.1261 C   0  0  0  0  0  3  0  0  0  0  0  0
    0.9989    0.3477   -0.9155 C   0  0  0  0  0  0  0  0  0  0  0  0
    0.3868    1.7031   -0.6340 C   0  0  0  0  0  3  0  0  0  0  0  0
   -0.2918    1.6383    0.7108 C   0  0  0  0  0  3  0  0  0  0  0  0
    0.6928    1.8858    1.8296 C   0  0  0  0  0  0  0  0  0  0  0  0
   -1.0033    0.3486    0.9470 C   0  0  0  0  0  0  0  0  0  0  0  0
   -2.0807    0.1117   -0.0898 C   0  0  0  0  0  0  0  0  0  0  0  0
   -3.0801    1.2655    0.0026 C   0  0  0  0  0  3  0  0  0  0  0  0
   -2.8652   -1.1485    0.2047 C   0  0  0  0  0  0  0  0  0  0  0  0
   -3.4461   -1.6102   -1.0862 C   0  0  0  0  0  0  0  0  0  0  0  0
   -4.7218   -1.5383   -1.3960 C   0  0  0  0  0  0  0  0  0  0  0  0
   -5.1360   -2.0515   -2.7442 C   0  0  0  0  0  0  0  0  0  0  0  0
   -5.7873   -0.9971   -0.5360 C   0  0  0  0  0  0  0  0  0  0  0  0
   -5.6128   -1.2158    0.8034 O   0  0  0  0  0  0  0  0  0  0  0  0
   -6.2504    0.3684   -0.9054 C   0  0  0  0  0  0  0  0  0  0  0  0
   -5.7494    1.4611   -0.0162 C   0  0  0  0  0  0  0  0  0  0  0  0
   -5.1908    0.9653    1.2935 C   0  0  0  0  0  0  0  0  0  0  0  0
   -3.7129    1.2685    1.3566 C   0  0  0  0  0  0  0  0  0  0  0  0
   -2.9037   -0.0053    2.5636 Br  0  0  0  0  0  0  0  0  0  0  0  0
  1  2  1  0
  2  3  1  0
  2  4  1  0
  4  5  1  0
  5  6  1  0
  6  7  1  0
  7  8  1  6
  7  9  1  0
  9 10  1  0
 10 11  1  0
 11 12  1  0
 12 13  1  0
 13 14  1  0
 13 15  1  0
 15 16  1  0
 16 17  1  0
 16 18  1  0
 18 19  1  0
 19 20  2  3
 20 21  1  0
 20 22  1  0
 22 23  1  0
 22 24  1  0
 24 25  1  0
 25 26  1  0
 26 27  1  0
 27 28  1  0
 27 17  1  0
M  RAD  5   9   2  10   2  12   2  13   2  17   2
M  END
$$$$
