
     RDKit          3D

  8  9  0  0  0  0  0  0  0  0999 V2000
    0.5165   -1.0125    0.9080 S   0  0  0  0  0  0  0  0  0  0  0  0
    0.9540    0.2907   -0.3098 C   0  0  0  0  0  0  0  0  0  0  0  0
    1.3448    1.5621    0.3763 C   0  0  0  0  0  0  0  0  0  0  0  0
    2.1175   -0.1832   -1.1582 C   0  0  0  0  0  0  0  0  0  0  0  0
   -0.2525    0.3952   -1.1733 C   0  0  0  0  0  0  0  0  0  0  0  0
   -1.4476   -0.1015   -0.5457 C   0  0  0  0  0  0  0  0  0  0  0  0
   -1.9782    0.1969    0.7731 C   0  0  0  0  0  0  0  0  0  0  0  0
   -1.2544   -1.1477    0.4285 C   0  0  0  0  0  0  0  0  0  0  0  0
  1  2  1  0
  2  3  1  0
  2  4  1  0
  2  5  1  0
  5  6  1  0
  6  7  1  0
  7  8  1  0
  8  1  1  0
  8  6  1  0
M  END
$$$$
