
     RDKit          3D

 29 30  0  0  0  0  0  0  0  0999 V2000
    5.1298   -0.6413   -2.1684 S   0  0  0  0  0  0  0  0  0  0  0  0
    6.1723   -1.1154   -0.7653 C   0  0  0  0  0  0  0  0  0  0  0  0
    6.6730    0.0542   -0.1512 O   0  0  0  0  0  0  0  0  0  0  0  0
    7.5949    0.0178    0.8711 N   0  0  0  0  0  0  0  0  0  0  0  0
    7.3247   -0.7754    1.8543 C   0  0  0  0  0  0  0  0  0  0  0  0
    5.7975   -1.6942    1.7227 S   0  0  0  0  0  0  0  0  0  0  0  0
    5.4450   -1.9096    0.0799 O   0  0  0  0  0  0  0  0  0  0  0  0
    3.7088    0.1843   -1.6766 O   0  0  0  0  0  0  0  0  0  0  0  0
    2.9911   -0.6586   -0.9671 O   0  0  0  0  0  0  0  0  0  0  0  0
    1.6462    0.0949   -0.2157 S   0  0  0  0  0  0  0  0  0  0  0  0
    0.0853   -0.2617   -0.5298 C   0  0  0  0  0  0  0  0  0  0  0  0
   -0.1511   -1.2085   -1.4374 N   0  0  0  0  0  0  0  0  0  0  0  0
   -1.2066   -2.0349   -1.4376 C   0  0  0  0  0  0  0  0  0  0  0  0
   -2.3265   -1.8128   -2.0403 O   0  0  0  0  0  0  0  0  0  0  0  0
   -2.3177   -0.5368   -3.0949 S   0  0  0  0  0  0  0  0  0  0  0  0
   -2.0533    1.0796   -2.6244 N   0  0  0  0  0  0  0  0  0  0  0  0
   -2.3475    1.6360   -1.4461 C   0  0  0  0  0  0  0  0  0  0  0  0
   -3.2392    3.2117   -1.5051 S   0  0  0  0  0  0  0  0  0  0  0  0
   -3.5765    3.8521    0.0968 C   0  0  0  0  0  0  0  0  0  0  0  0
   -2.6025    4.3649    0.8634 C   0  0  0  0  0  0  0  0  0  0  0  0
   -0.9162    0.3579    0.0906 C   0  0  0  0  0  0  0  0  0  0  0  0
   -1.9930    1.0441   -0.2939 C   0  0  0  0  0  0  0  0  0  0  0  0
   -3.3329    1.2490    1.0849 S   0  0  0  0  0  0  0  0  0  0  0  0
   -4.6306    0.6760    0.7286 S   0  0  0  0  0  0  0  0  0  0  0  0
   -4.9489   -1.0640    0.6504 N   0  0  0  0  0  0  0  0  0  0  0  0
   -6.1611   -1.4889    0.5112 C   0  0  0  0  0  0  0  0  0  0  0  0
   -6.3003   -2.9881    0.4582 C   0  0  0  0  0  0  0  0  0  0  0  0
   -2.5045    1.1518    2.5105 S   0  0  0  0  0  0  0  0  0  0  0  0
   -1.9602   -0.7842    3.1870 Cl  0  0  0  0  0  0  0  0  0  0  0  0
  1  2  1  0
  2  3  1  0
  3  4  1  0
  4  5  2  0
  5  6  1  0
  6  7  1  0
  1  8  1  0
  8  9  1  0
  9 10  1  0
 10 11  2  3
 11 12  1  0
 12 13  2  0
 13 14  1  0
 14 15  1  0
 15 16  1  0
 16 17  2  0
 17 18  1  0
 18 19  1  0
 19 20  2  0
 11 21  1  0
 21 22  2  0
 22 23  1  0
 23 24  1  0
 24 25  1  0
 25 26  2  3
 26 27  1  0
 23 28  1  0
 28 29  1  0
  7  2  1  0
 22 17  1  0
M  END
$$$$
