
     RDKit          3D

 92 94  0  0  0  0  0  0  0  0999 V2000
   14.5366    4.2747    0.5951 C   0  0  0  0  0  0  0  0  0  0  0  0
   13.8253    2.9900    0.1735 C   0  0  0  0  0  0  0  0  0  0  0  0
   13.9169    2.9284   -1.3560 C   0  0  0  0  0  0  0  0  0  0  0  0
   14.6188    1.8200    0.7639 C   0  0  0  0  0  0  0  0  0  0  0  0
   13.9725    0.5111    0.3877 C   0  0  0  0  0  0  0  0  0  0  0  0
   14.7888   -0.5981    0.9914 C   0  0  0  0  0  0  0  0  0  0  0  0
   14.2429   -1.9731    0.6867 C   0  0  1  0  0  0  0  0  0  0  0  0
   15.1436   -2.9880    1.3425 C   0  0  0  0  0  0  0  0  0  0  0  0
   12.8310   -2.1211    1.1922 C   0  0  0  0  0  3  0  0  0  0  0  0
   12.7771   -1.9131    2.6809 C   0  0  0  0  0  3  0  0  0  0  0  0
   11.3846   -1.9728    3.2295 C   0  0  0  0  0  0  0  0  0  0  0  0
   10.5578   -0.8772    2.5503 C   0  0  2  0  0  0  0  0  0  0  0  0
   11.2778    0.4304    2.9117 C   0  0  0  0  0  0  0  0  0  0  0  0
    9.1622   -0.8566    3.1623 C   0  0  0  0  0  3  0  0  0  0  0  0
    8.2791    0.1892    2.5378 C   0  0  0  0  0  0  0  0  0  0  0  0
    8.1162   -0.1077    1.0756 C   0  0  0  0  0  0  0  0  0  0  0  0
    7.4865   -1.4740    0.9674 C   0  0  0  0  0  0  0  0  0  0  0  0
    9.4891   -0.2247    0.4586 C   0  0  0  0  0  0  0  0  0  0  0  0
   10.0032    1.0144   -0.1777 C   0  0  0  0  0  0  0  0  0  0  0  0
   10.4811    0.7074   -1.5750 C   0  0  0  0  0  0  0  0  0  0  0  0
   11.4350   -0.4431   -1.6585 C   0  0  0  0  0  0  0  0  0  0  0  0
   10.7687   -1.7941   -1.4973 C   0  0  0  0  0  0  0  0  0  0  0  0
   10.5136   -2.3676   -2.8641 C   0  0  0  0  0  0  0  0  0  0  0  0
    9.6124   -3.5781   -2.8221 C   0  0  0  0  0  0  0  0  0  0  0  0
    8.2409   -3.2557   -2.2882 C   0  0  0  0  0  0  0  0  0  0  0  0
    7.5075   -2.2502   -3.1338 C   0  0  0  0  0  0  0  0  0  0  0  0
    7.6975   -2.4816   -4.6117 C   0  0  0  0  0  0  0  0  0  0  0  0
    7.7842   -0.9381   -2.7621 O   0  0  0  0  0  0  0  0  0  0  0  0
    7.4614   -0.8182   -1.4071 C   0  0  0  0  0  0  0  0  0  0  0  0
    7.0561    0.5830   -1.0410 C   0  0  0  0  0  0  0  0  0  0  0  0
    7.3216    0.9685    0.3621 C   0  0  0  0  0  0  0  0  0  0  0  0
    8.1426    2.2792    0.4308 C   0  0  0  0  0  0  0  0  0  0  0  0
    6.7838    2.9826    0.4326 C   0  0  0  0  0  3  0  0  0  0  0  0
    6.2656    1.6702    1.0997 C   0  0  0  0  0  0  0  0  0  0  0  0
    6.5975    1.8523    2.6085 C   0  0  0  0  0  0  0  0  0  0  0  0
    4.8356    1.5544    0.8679 C   0  0  0  0  0  0  0  0  0  0  0  0
    4.0767    0.3383    0.9783 C   0  0  0  0  0  0  0  0  0  0  0  0
    4.3842   -0.7294    0.0019 C   0  0  1  0  0  0  0  0  0  0  0  0
    3.5159   -1.9876    0.3203 C   0  0  0  0  0  0  0  0  0  0  0  0
    3.9710   -0.3147   -1.4303 C   0  0  0  0  0  3  0  0  0  0  0  0
    2.5222   -0.1412   -1.6103 C   0  0  0  0  0  0  0  0  0  0  0  0
    1.8159    0.8971   -0.8637 C   0  0  0  0  0  0  0  0  0  0  0  0
    2.2192    2.3103   -1.0644 C   0  0  0  0  0  0  0  0  0  0  0  0
    1.2670    0.5464    0.4640 C   0  0  0  0  0  0  0  0  0  0  0  0
    0.2582   -0.5684    0.4271 C   0  0  0  0  0  0  0  0  0  0  0  0
   -0.9418   -0.2659   -0.4187 C   0  0  0  0  0  0  0  0  0  0  0  0
   -0.6194    0.5768   -1.6174 C   0  0  0  0  0  0  0  0  0  0  0  0
   -0.7575   -0.3217   -2.8524 C   0  0  0  0  0  0  0  0  0  0  0  0
   -1.5683    1.7206   -1.8118 C   0  0  0  0  0  0  0  0  0  0  0  0
   -2.7369    1.6971   -0.8699 C   0  0  0  0  0  0  0  0  0  0  0  0
   -3.9790    2.2270   -1.5290 C   0  0  0  0  0  0  0  0  0  0  0  0
   -4.6659    1.5416   -2.4078 C   0  0  0  0  0  0  0  0  0  0  0  0
   -5.8893    2.1030   -3.0367 C   0  0  0  0  0  0  0  0  0  0  0  0
   -4.2323    0.1790   -2.7969 C   0  0  0  0  0  3  0  0  0  0  0  0
   -5.0773   -0.9061   -2.1782 C   0  0  0  0  0  0  0  0  0  0  0  0
   -6.4955   -0.9137   -2.6894 C   0  0  0  0  0  0  0  0  0  0  0  0
   -7.4540   -0.1921   -1.7598 C   0  0  0  0  0  0  0  0  0  0  0  0
   -8.1236   -1.2900   -0.9216 C   0  0  0  0  0  0  0  0  0  0  0  0
   -9.0746   -2.0142   -1.8472 C   0  0  0  0  0  0  0  0  0  0  0  0
  -10.4884   -1.8478   -1.3514 C   0  0  0  0  0  3  0  0  0  0  0  0
  -11.1735   -0.7585   -2.1249 C   0  0  0  0  0  0  0  0  0  0  0  0
  -10.2316    0.4286   -2.2694 C   0  0  0  0  0  0  0  0  0  0  0  0
  -10.9686    1.7327   -1.9648 C   0  0  0  0  0  3  0  0  0  0  0  0
  -12.4022    1.4063   -1.5339 C   0  0  0  0  0  2  0  0  0  0  0  0
  -13.3141    0.6024   -2.8914 S   0  0  0  0  0  0  0  0  0  0  0  0
  -14.6014   -0.4485   -2.1580 C   0  0  0  0  0  0  0  0  0  0  0  0
  -15.1249    0.2442   -0.9118 C   0  0  0  0  0  3  0  0  0  0  0  0
  -16.4689    0.8873   -1.1744 C   0  0  0  0  0  0  0  0  0  0  0  0
  -16.8537    1.6861    0.0499 C   0  0  0  0  0  0  0  0  0  0  0  0
  -17.6258    0.7654    0.9819 C   0  0  0  0  0  0  0  0  0  0  0  0
  -15.5672    2.1124    0.7273 C   0  0  0  0  0  3  0  0  0  0  0  0
  -15.2062    1.0416    1.7266 C   0  0  0  0  0  0  0  0  0  0  0  0
  -13.7335    0.7676    1.6814 C   0  0  0  0  0  0  0  0  0  0  0  0
  -13.4130   -0.5242    2.4373 C   0  0  0  0  0  0  0  0  0  0  0  0
  -14.3900   -1.6080    2.0536 C   0  0  0  0  0  0  0  0  0  0  0  0
  -12.0155   -0.9745    2.0762 C   0  0  0  0  0  3  0  0  0  0  0  0
  -11.0676    0.1994    2.1156 C   0  0  0  0  0  0  0  0  0  0  0  0
  -10.0210   -0.0461    3.1809 C   0  0  0  0  0  0  0  0  0  0  0  0
   -8.8880    0.9248    3.0079 C   0  0  0  0  0  0  0  0  0  0  0  0
   -9.3633    2.0706    2.1494 C   0  0  0  0  0  0  0  0  0  0  0  0
   -8.2116    2.2383    0.7458 S   0  0  0  0  0  0  0  0  0  0  0  0
   -6.6186    1.4462    1.1029 C   0  0  0  0  0  0  0  0  0  0  0  0
   -6.4346    1.2112    2.5918 C   0  0  0  0  0  3  0  0  0  0  0  0
   -6.1200   -0.2599    2.8398 C   0  0  0  0  0  0  0  0  0  0  0  0
   -5.7047   -0.8691    1.5190 C   0  0  0  0  0  0  0  0  0  0  0  0
   -5.0958   -2.2442    1.7018 C   0  0  1  0  0  0  0  0  0  0  0  0
   -5.7007   -3.1678    0.6531 C   0  0  0  0  0  0  0  0  0  0  0  0
   -3.5880   -2.2010    1.4563 C   0  0  0  0  0  3  0  0  0  0  0  0
   -2.8513   -1.7234    2.6769 C   0  0  0  0  0  0  0  0  0  0  0  0
   -2.6973   -0.2312    2.7026 C   0  0  0  0  0  3  0  0  0  0  0  0
   -1.2146    0.0782    2.9159 C   0  0  0  0  0  2  0  0  0  0  0  0
   -0.1742   -1.1537    2.0681 S   0  0  0  0  0  0  0  0  0  0  0  0
  1  2  1  0
  2  3  1  0
  2  4  1  0
  4  5  1  0
  5  6  1  0
  6  7  1  0
  7  8  1  1
  7  9  1  0
  9 10  1  0
 10 11  1  0
 11 12  1  0
 12 13  1  1
 12 14  1  0
 14 15  1  0
 15 16  1  0
 16 17  1  0
 16 18  1  0
 18 19  1  0
 19 20  1  0
 20 21  1  0
 21 22  1  0
 22 23  1  0
 23 24  1  0
 24 25  1  0
 25 26  1  0
 26 27  1  0
 26 28  1  0
 28 29  1  0
 29 30  1  0
 30 31  1  0
 31 32  1  0
 32 33  1  0
 33 34  1  0
 34 35  1  0
 34 36  1  0
 36 37  1  0
 37 38  1  0
 38 39  1  1
 38 40  1  0
 40 41  1  0
 41 42  1  0
 42 43  1  0
 42 44  1  0
 44 45  1  0
 45 46  1  0
 46 47  1  0
 47 48  1  0
 47 49  1  0
 49 50  1  0
 50 51  1  0
 51 52  2  3
 52 53  1  0
 52 54  1  0
 54 55  1  0
 55 56  1  0
 56 57  1  0
 57 58  1  0
 58 59  1  0
 59 60  1  0
 60 61  1  0
 61 62  1  0
 62 63  1  0
 63 64  1  0
 64 65  1  0
 65 66  1  0
 66 67  1  0
 67 68  1  0
 68 69  1  0
 69 70  1  0
 69 71  1  0
 71 72  1  0
 72 73  1  0
 73 74  1  0
 74 75  1  0
 74 76  1  0
 76 77  1  0
 77 78  1  0
 78 79  1  0
 79 80  1  0
 80 81  1  0
 81 82  1  0
 82 83  1  0
 83 84  1  0
 84 85  1  0
 85 86  1  0
 86 87  1  6
 86 88  1  0
 88 89  1  0
 89 90  1  0
 90 91  1  0
 91 92  1  0
 31 16  1  0
 34 31  1  0
 92 45  1  0
M  RAD  8   9   2  10   2  14   2  33   2  40   2  54   2  60   2  63   2
M  RAD  8  64   3  67   2  71   2  76   2  83   2  88   2  90   2  91   3
M  END
$$$$
