
     RDKit          3D

 31 32  0  0  0  0  0  0  0  0999 V2000
   -3.6124   -1.3080   -0.8298 C   0  0  0  0  0  0  0  0  0  0  0  0
   -4.5024   -1.6277    0.2222 O   0  0  0  0  0  0  0  0  0  0  0  0
   -4.3685   -1.0379    1.4619 C   0  0  0  0  0  0  0  0  0  0  0  0
   -5.0212   -1.4843    2.4263 O   0  0  0  0  0  0  0  0  0  0  0  0
   -3.4446    0.1088    1.5822 C   0  0  0  0  0  3  0  0  0  0  0  0
   -3.4074    0.9151    0.3392 C   0  0  0  0  0  0  0  0  0  0  0  0
   -3.3172    0.1588   -0.9346 C   0  0  0  0  0  0  0  0  0  0  0  0
   -4.0985    0.7730   -1.9023 O   0  0  0  0  0  0  0  0  0  0  0  0
   -5.4484    0.7714   -1.6364 C   0  0  0  0  0  0  0  0  0  0  0  0
   -5.7643    1.4877   -0.3634 C   0  0  0  0  0  0  0  0  0  0  0  0
   -5.3154    2.9318   -0.4372 C   0  0  0  0  0  2  0  0  0  0  0  0
   -1.9859    0.2679   -1.3929 O   0  0  0  0  0  0  0  0  0  0  0  0
   -1.2279   -0.6628    0.0876 S   0  0  0  0  0  0  0  0  0  0  0  0
   -0.1422   -1.8439   -0.5457 C   0  0  0  0  0  0  0  0  0  0  0  0
    1.0417   -1.4809   -0.8691 N   0  0  0  0  0  0  0  0  0  0  0  0
    2.0138   -2.3671   -1.3981 C   0  0  0  0  0  0  0  0  0  0  0  0
    2.3876   -3.4062   -0.4833 N   0  0  0  0  0  0  0  0  0  0  0  0
    2.4131   -2.8747    0.8531 C   0  0  0  0  0  0  0  0  0  0  0  0
    3.8370   -2.4990    1.2119 C   0  0  0  0  0  0  0  0  0  0  0  0
    3.9472   -0.7676    1.6764 S   0  0  0  0  0  0  0  0  0  0  0  0
    5.6647   -0.3797    1.9741 C   0  0  0  0  0  0  0  0  0  0  0  0
    6.4390    0.0876    0.9964 C   0  0  0  0  0  0  0  0  0  0  0  0
    5.9306    0.2969   -0.3241 N   0  0  0  0  0  0  0  0  0  0  0  0
    5.6110    1.6308   -0.7230 C   0  0  0  0  0  0  0  0  0  0  0  0
    4.0944    1.8327   -0.7090 C   0  0  0  0  0  0  0  0  0  0  0  0
    3.8247    2.9526    0.3001 C   0  0  0  0  0  0  0  0  0  0  0  0
    2.3449    3.0765    0.5328 C   0  0  0  0  0  0  0  0  0  0  0  0
    1.8359    1.8182    1.0288 N   0  0  0  0  0  0  0  0  0  0  0  0
    0.7726    1.3580    0.1334 C   0  0  0  0  0  0  0  0  0  0  0  0
   -0.2060    0.5483    0.9115 C   0  0  0  0  0  0  0  0  0  0  0  0
   -0.2959    0.7238    2.1012 O   0  0  0  0  0  0  0  0  0  0  0  0
  1  2  1  0
  2  3  1  0
  3  4  2  0
  3  5  1  0
  5  6  1  0
  6  7  1  0
  7  8  1  0
  8  9  1  0
  9 10  1  0
 10 11  1  0
  7 12  1  0
 12 13  1  0
 13 14  1  0
 14 15  2  3
 15 16  1  0
 16 17  1  0
 17 18  1  0
 18 19  1  0
 19 20  1  0
 20 21  1  0
 21 22  2  3
 22 23  1  0
 23 24  1  0
 24 25  1  0
 25 26  1  0
 26 27  1  0
 27 28  1  0
 28 29  1  0
 29 30  1  0
 30 31  2  0
  7  1  1  0
 30 13  1  0
M  RAD  2   5   2  11   3
M  END
$$$$
