
     RDKit          3D

  3  2  0  0  0  0  0  0  0  0999 V2000
    1.4383   -0.1688    0.0000 S   0  0  0  0  0  0  0  0  0  0  0  0
   -0.2344    0.4601   -0.0000 C   0  0  0  0  0  0  0  0  0  0  0  0
   -1.2039   -0.2912   -0.0000 O   0  0  0  0  0  0  0  0  0  0  0  0
  1  2  1  0
  2  3  2  0
M  END
$$$$
