
     RDKit          3D

 48 47  0  0  0  0  0  0  0  0999 V2000
   13.4682   -0.2130    1.0777 C   0  0  0  0  0  0  0  0  0  0  0  0
   12.1718    0.2693    0.5091 C   0  0  0  0  0  0  0  0  0  0  0  0
   12.0709    0.6539   -0.7016 N   0  0  0  0  0  0  0  0  0  0  0  0
   10.9827    0.2911    1.3877 C   0  0  0  0  0  0  0  0  0  0  0  0
    9.7566    0.7916    0.6822 C   0  0  0  0  0  0  0  0  0  0  0  0
    9.9900    2.2139    0.2068 C   0  0  0  0  0  0  0  0  0  0  0  0
    8.6768    2.6130   -0.4827 C   0  0  0  0  0  0  0  0  0  0  0  0
    8.5044    1.6224   -1.6189 C   0  0  0  0  0  0  0  0  0  0  0  0
    7.2576    1.8286   -2.4086 C   0  0  0  0  0  0  0  0  0  0  0  0
    7.1580    3.1584   -3.0581 C   0  0  0  0  0  0  0  0  0  0  0  0
    5.8483    3.2355   -3.8339 C   0  0  0  0  0  0  0  0  0  0  0  0
    4.4297    3.0193   -2.7259 S   0  0  0  0  0  0  0  0  0  0  0  0
    4.3545    1.3959   -2.0597 N   0  0  0  0  0  0  0  0  0  0  0  0
    3.5049    0.9913   -1.0204 C   0  0  0  0  0  0  0  0  0  0  0  0
    3.0827    1.9311    0.0795 C   0  0  0  0  0  0  0  0  0  0  0  0
    3.0369   -0.2260   -0.9936 C   0  0  0  0  0  0  0  0  0  0  0  0
    2.1269   -0.6861    0.1262 C   0  0  0  0  0  0  0  0  0  0  0  0
    0.7958   -1.0534   -0.4333 C   0  0  0  0  0  0  0  0  0  0  0  0
    0.5558   -0.8789   -1.6557 O   0  0  0  0  0  0  0  0  0  0  0  0
   -0.2010   -1.5988    0.3864 N   0  0  0  0  0  0  0  0  0  0  0  0
   -1.5238   -1.9950   -0.0225 C   0  0  0  0  0  0  0  0  0  0  0  0
   -2.3581   -2.5276    0.9887 C   0  0  0  0  0  0  0  0  0  0  0  0
   -3.5268   -2.2770    1.4939 C   0  0  0  0  0  0  0  0  0  0  0  0
   -4.1303   -3.0599    2.5969 C   0  0  0  0  0  0  0  0  0  0  0  0
   -3.0236   -4.3044    3.2551 S   0  0  0  0  0  0  0  0  0  0  0  0
   -1.7237   -3.5176    4.1757 N   0  0  0  0  0  0  0  0  0  0  0  0
   -1.1203   -2.5541    3.4086 N   0  0  0  0  0  0  0  0  0  0  0  0
   -1.4071   -1.3174    3.8267 O   0  0  0  0  0  0  0  0  0  0  0  0
   -0.4912   -0.4619    3.4597 O   0  0  0  0  0  0  0  0  0  0  0  0
   -1.1062    0.7029    3.0152 C   0  0  0  0  0  3  0  0  0  0  0  0
   -0.1757    1.7137    2.4535 C   0  0  0  0  0  3  0  0  0  0  0  0
   -0.1668    1.8278    0.9489 C   0  0  0  0  0  0  0  0  0  0  0  0
   -4.3237   -1.1117    0.9606 C   0  0  0  0  0  0  0  0  0  0  0  0
   -4.8850   -0.3150    2.0430 C   0  0  0  0  0  0  0  0  0  0  0  0
   -4.6577    0.9620    2.2215 C   0  0  0  0  0  0  0  0  0  0  0  0
   -5.3438    1.5880    3.4231 C   0  0  0  0  0  0  0  0  0  0  0  0
   -3.6825    1.9943    1.1602 S   0  0  0  0  0  0  0  0  0  0  0  0
   -3.1312    1.0988   -0.2386 N   0  0  0  0  0  0  0  0  0  0  0  0
   -4.0107    1.5616   -1.6988 S   0  0  0  0  0  0  0  0  0  0  0  0
   -2.9855    1.2848   -2.9285 C   0  0  0  0  0  0  0  0  0  0  0  0
   -5.3641    0.4143   -1.8379 C   0  0  0  0  0  0  0  0  0  0  0  0
   -6.6342    0.7813   -1.7215 C   0  0  0  0  0  0  0  0  0  0  0  0
   -7.6106   -0.2981   -1.8615 C   0  0  0  0  0  0  0  0  0  0  0  0
   -8.9011   -0.0843   -1.7782 C   0  0  0  0  0  0  0  0  0  0  0  0
   -9.9193   -1.0888   -1.9053 C   0  0  0  0  0  0  0  0  0  0  0  0
  -10.7950   -1.9333   -2.0248 C   0  0  0  0  0  0  0  0  0  0  0  0
  -12.0577   -3.1581   -2.2280 S   0  0  0  0  0  0  0  0  0  0  0  0
  -12.5155   -3.2847   -3.7586 C   0  0  0  0  0  0  0  0  0  0  0  0
  1  2  1  0
  2  3  2  0
  2  4  1  0
  4  5  1  0
  5  6  1  0
  6  7  1  0
  7  8  1  0
  8  9  1  0
  9 10  1  0
 10 11  1  0
 11 12  1  0
 12 13  1  0
 13 14  1  0
 14 15  1  0
 14 16  2  3
 16 17  1  0
 17 18  1  0
 18 19  2  0
 18 20  1  0
 20 21  1  0
 21 22  1  0
 22 23  2  3
 23 24  1  0
 24 25  1  0
 25 26  1  0
 26 27  1  0
 27 28  1  0
 28 29  1  0
 29 30  1  0
 30 31  1  0
 31 32  1  0
 23 33  1  0
 33 34  1  0
 34 35  2  3
 35 36  1  0
 35 37  1  0
 37 38  1  0
 38 39  1  0
 39 40  2  0
 39 41  1  0
 41 42  2  3
 42 43  1  0
 43 44  2  3
 44 45  1  0
 45 46  3  0
 46 47  1  0
 47 48  2  0
M  RAD  2  30   2  31   2
M  END
$$$$
