
     RDKit          3D

  4  3  0  0  0  0  0  0  0  0999 V2000
   -1.6462   -0.3891   -0.0059 O   0  0  0  0  0  0  0  0  0  0  0  0
   -0.7584    0.4862    0.0085 C   0  0  0  0  0  0  0  0  0  0  0  0
    0.6269    0.1021   -0.0024 C   0  0  0  0  0  0  0  0  0  0  0  0
    1.7777   -0.1993   -0.0002 C   0  0  0  0  0  0  0  0  0  0  0  0
  1  2  2  0
  2  3  1  0
  3  4  3  0
M  END
$$$$
