
     RDKit          3D

 22 21  0  0  0  0  0  0  0  0999 V2000
    9.4859   -0.0081   -0.6148 N   0  0  0  0  0  0  0  0  0  0  0  0
    8.2788    0.4444   -0.6210 C   0  0  0  0  0  0  0  0  0  0  0  0
    7.1935   -0.4945   -0.4594 C   0  0  0  0  0  0  0  0  0  0  0  0
    5.9192   -0.1178   -0.4534 C   0  0  0  0  0  0  0  0  0  0  0  0
    4.8887   -1.1532   -0.2821 C   0  0  0  0  0  3  0  0  0  0  0  0
    3.6923   -0.6494    0.2093 O   0  0  0  0  0  0  0  0  0  0  0  0
    3.1018    0.2843   -0.6086 C   0  0  0  0  0  0  0  0  0  0  0  0
    2.7612   -0.2211   -1.9717 C   0  0  0  0  0  0  0  0  0  0  0  0
    1.8146   -1.3577   -1.8689 C   0  0  0  0  0  0  0  0  0  0  0  0
    0.8732   -1.4369   -0.9757 C   0  0  0  0  0  0  0  0  0  0  0  0
   -0.0020   -1.4464    0.3786 S   0  0  0  0  0  0  0  0  0  0  0  0
   -1.1248    0.3008    0.8797 S   0  0  0  0  0  0  0  0  0  0  0  0
   -2.6816    0.4551    0.5119 C   0  0  0  0  0  0  0  0  0  0  0  0
   -3.5437   -0.4493   -0.1556 C   0  0  0  0  0  0  0  0  0  0  0  0
   -3.4482   -1.5963   -0.6659 C   0  0  0  0  0  0  0  0  0  0  0  0
   -2.3439   -2.3412   -0.7027 F   0  0  0  0  0  0  0  0  0  0  0  0
   -3.2940    1.7081    0.9257 N   0  0  0  0  0  0  0  0  0  0  0  0
   -4.5431    1.8014    1.1757 C   0  0  0  0  0  0  0  0  0  0  0  0
   -5.3955    0.6266    1.0476 C   0  0  0  0  0  0  0  0  0  0  0  0
   -6.6824    0.7291    1.3068 C   0  0  0  0  0  0  0  0  0  0  0  0
   -7.2459    1.9612    1.7066 C   0  0  0  0  0  0  0  0  0  0  0  0
   -7.7042    2.9609    2.0106 N   0  0  0  0  0  0  0  0  0  0  0  0
  1  2  2  0
  2  3  1  0
  3  4  2  3
  4  5  1  0
  5  6  1  0
  6  7  1  0
  7  8  1  0
  8  9  1  0
  9 10  2  0
 10 11  2  0
 11 12  1  0
 12 13  2  3
 13 14  1  0
 14 15  2  3
 15 16  1  0
 13 17  1  0
 17 18  2  3
 18 19  1  0
 19 20  2  3
 20 21  1  0
 21 22  3  0
M  RAD  1   5   2
M  END
$$$$
