
     RDKit          3D

 20 20  0  0  0  0  0  0  0  0999 V2000
   -4.4369   -1.3376    0.7452 C   0  0  0  0  0  0  0  0  0  0  0  0
   -5.0427   -1.2800   -0.5185 O   0  0  0  0  0  0  0  0  0  0  0  0
   -5.6072    0.0044   -0.6677 C   0  0  0  0  0  3  0  0  0  0  0  0
   -5.2953    0.7938    0.4425 O   0  0  0  0  0  0  0  0  0  0  0  0
   -4.0889    1.4493    0.2696 C   0  0  2  0  0  0  0  0  0  0  0  0
   -4.2961    2.4393   -0.8786 C   0  0  0  0  0  0  0  0  0  0  0  0
   -2.9916    0.5178   -0.1250 C   0  0  0  0  0  3  0  0  0  0  0  0
   -3.0221   -0.8133    0.5926 C   0  0  2  0  0  0  0  0  0  0  0  0
   -2.2672   -1.7547   -0.2111 N   0  0  0  0  0  0  0  0  0  0  0  0
   -0.8705   -1.4470   -0.1823 C   0  0  0  0  0  3  0  0  0  0  0  0
   -0.6550    0.0293   -0.3919 C   0  0  0  0  0  0  0  0  0  0  0  0
    0.8238    0.3684   -0.3624 C   0  0  0  0  0  3  0  0  0  0  0  0
    1.3302   -0.0593    1.0055 C   0  0  0  0  0  3  0  0  0  0  0  0
    2.0442   -1.3809    0.8234 C   0  0  0  0  0  0  0  0  0  0  0  0
    3.2044   -1.1292   -0.1480 C   0  0  0  0  0  0  0  0  0  0  0  0
    4.0772   -0.0815    0.5303 C   0  0  0  0  0  3  0  0  0  0  0  0
    5.2450    0.2046   -0.3651 C   0  0  0  0  0  0  0  0  0  0  0  0
    6.1465    1.2397    0.2721 C   0  0  0  0  0  0  0  0  0  0  0  0
    7.3329    1.5506   -0.6016 C   0  0  0  0  0  3  0  0  0  0  0  0
    8.3694    0.6862   -0.2751 O   0  0  0  0  0  1  0  0  0  0  0  0
  1  2  1  0
  2  3  1  0
  3  4  1  0
  4  5  1  0
  5  6  1  6
  5  7  1  0
  7  8  1  0
  8  9  1  6
  9 10  1  0
 10 11  1  0
 11 12  1  0
 12 13  1  0
 13 14  1  0
 14 15  1  0
 15 16  1  0
 16 17  1  0
 17 18  1  0
 18 19  1  0
 19 20  1  0
  8  1  1  0
M  CHG  1  20  -1
M  RAD  7   3   2   7   2  10   2  12   2  13   2  16   2  19   2
M  END
$$$$
