
     RDKit          3D

 10  9  0  0  0  0  0  0  0  0999 V2000
    3.1345   -1.0977   -0.0612 C   0  0  0  0  0  0  0  0  0  0  0  0
    1.6760   -0.8615    0.3537 C   0  0  0  0  0  0  0  0  0  0  0  0
    1.3605    0.5880    0.2649 C   0  0  0  0  0  0  0  0  0  0  0  0
    0.2464    1.0465   -0.1724 N   0  0  0  0  0  4  0  0  0  0  0  0
    0.0793    2.4026   -0.2039 O   0  0  0  0  0  1  0  0  0  0  0  0
   -0.7624    0.2279   -0.6009 N   0  0  0  0  0  3  0  0  0  0  0  0
   -0.4905   -0.5318   -1.6534 O   0  0  0  0  0  1  0  0  0  0  0  0
   -1.5030   -0.3771    0.3840 N   0  0  0  0  0  4  0  0  0  0  0  0
   -2.0984   -1.5964    0.2107 O   0  0  0  0  0  1  0  0  0  0  0  0
   -1.6423    0.1996    1.4785 O   0  0  0  0  0  0  0  0  0  0  0  0
  1  2  1  0
  2  3  1  0
  3  4  2  3
  4  5  1  0
  4  6  1  0
  6  7  1  0
  6  8  1  0
  8  9  1  0
  8 10  2  0
M  CHG  6   4   1   5  -1   6   1   7  -1   8   1   9  -1
M  RAD  1   6   2
M  END
$$$$
