
     RDKit          3D

 52 53  0  0  0  0  0  0  0  0999 V2000
   -5.7273   -3.0942   -0.7955 O   0  0  0  0  0  0  0  0  0  0  0  0
   -4.8849   -2.1580   -0.1895 C   0  0  0  0  0  0  0  0  0  0  0  0
   -5.4955   -1.7706    1.1203 C   0  0  0  0  0  3  0  0  0  0  0  0
   -5.3851   -0.3571    1.2868 N   0  0  0  0  0  0  0  0  0  0  0  0
   -5.9396    0.3854    0.1410 C   0  0  2  0  0  0  0  0  0  0  0  0
   -4.8176    1.0915   -0.5102 C   0  0  0  0  0  0  0  0  0  0  0  0
   -5.1002    2.3041   -1.0632 O   0  0  0  0  0  0  0  0  0  0  0  0
   -7.0446    1.2248    0.6534 C   0  0  1  0  0  0  0  0  0  0  0  0
   -6.8610    1.6167    1.9717 O   0  0  0  0  0  0  0  0  0  0  0  0
   -7.4257    2.3864   -0.1853 C   0  0  2  0  0  0  0  0  0  0  0  0
   -7.2290    2.2018   -1.5483 O   0  0  0  0  0  0  0  0  0  0  0  0
   -6.5747    3.5804    0.2670 C   0  0  0  0  0  3  0  0  0  0  0  0
   -5.1166    3.3230   -0.0871 C   0  0  2  0  0  0  0  0  0  0  0  0
   -4.5117    4.5678   -0.7200 C   0  0  0  0  0  0  0  0  0  0  0  0
   -3.7744    5.3944    0.3047 C   0  0  0  0  0  0  0  0  0  0  0  0
   -3.1408    6.4283   -0.3626 O   0  0  0  0  0  0  0  0  0  0  0  0
   -1.7610    6.2841   -0.1898 C   0  0  1  0  0  0  0  0  0  0  0  0
   -1.2083    5.6114   -1.2902 O   0  0  0  0  0  0  0  0  0  0  0  0
   -1.1506    7.6735   -0.0660 C   0  0  0  0  0  0  0  0  0  0  0  0
    0.1464    7.5230    0.4181 O   0  0  0  0  0  0  0  0  0  0  0  0
    0.9351    6.3269   -0.5261 S   0  0  0  0  0  0  0  0  0  0  0  0
    2.5816    6.7955   -0.7060 O   0  0  0  0  0  0  0  0  0  0  0  0
    3.2882    5.6780   -0.7799 O   0  0  0  0  0  0  0  0  0  0  0  0
    4.3371    5.7804    0.1306 C   0  0  0  0  0  0  0  0  0  0  0  0
    5.4440    6.4658   -0.5294 N   0  0  0  0  0  0  0  0  0  0  0  0
    6.6048    5.5929   -0.4926 C   0  0  0  0  0  0  0  0  0  0  0  0
    6.2504    4.2659   -0.7491 O   0  0  0  0  0  0  0  0  0  0  0  0
    6.9168    3.4814    0.1853 C   0  0  1  0  0  0  0  0  0  0  0  0
    6.0874    3.0753    1.2186 F   0  0  0  0  0  0  0  0  0  0  0  0
    7.4889    2.2175   -0.4318 C   0  0  0  0  0  0  0  0  0  0  0  0
    7.7844    1.3596    0.6339 O   0  0  0  0  0  0  0  0  0  0  0  0
    6.7536    0.4173    0.7116 C   0  0  0  0  0  0  0  0  0  0  0  0
    7.2351   -0.7512    0.1387 O   0  0  0  0  0  0  0  0  0  0  0  0
    6.3036   -1.7866    0.1690 C   0  0  0  0  0  0  0  0  0  0  0  0
    6.8655   -2.8582   -0.5374 O   0  0  0  0  0  0  0  0  0  0  0  0
    6.8064   -3.9670    0.3155 C   0  0  0  0  0  0  0  0  0  0  0  0
    6.1663   -5.0218   -0.3239 O   0  0  0  0  0  0  0  0  0  0  0  0
    5.0565   -5.2903    0.3495 O   0  0  0  0  0  0  0  0  0  0  0  0
    4.1230   -5.7944   -0.5566 C   0  0  2  0  0  0  0  0  0  0  0  0
    2.9140   -5.0980   -0.4895 O   0  0  0  0  0  0  0  0  0  0  0  0
    3.9398   -7.2568   -0.2349 C   0  0  0  0  0  0  0  0  0  0  0  0
    2.5783   -7.6998   -0.7247 C   0  0  0  0  0  3  0  0  0  0  0  0
    1.6449   -7.3194    0.2477 O   0  0  0  0  0  0  0  0  0  0  0  0
    0.3650   -7.3270   -0.3159 C   0  0  0  0  0  0  0  0  0  0  0  0
   -0.4643   -6.6560    0.5850 O   0  0  0  0  0  0  0  0  0  0  0  0
   -1.4663   -6.0025   -0.1237 C   0  0  1  0  0  0  0  0  0  0  0  0
   -1.8282   -6.8877   -1.3086 C   0  0  0  0  0  0  0  0  0  0  0  0
   -2.5832   -5.9467    0.7007 O   0  0  0  0  0  0  0  0  0  0  0  0
   -3.7281   -5.8208   -0.0851 C   0  0  0  0  0  2  0  0  0  0  0  0
   -4.0155   -4.4754   -0.3520 O   0  0  0  0  0  0  0  0  0  0  0  0
   -5.4085   -4.3474   -0.2635 C   0  0  2  0  0  0  0  0  0  0  0  0
   -5.9741   -5.3663   -1.0262 O   0  0  0  0  0  0  0  0  0  0  0  0
  1  2  1  0
  2  3  1  0
  3  4  1  0
  5  4  1  1
  5  6  1  0
  6  7  1  0
  5  8  1  0
  8  9  1  1
  8 10  1  0
 10 11  1  6
 10 12  1  0
 13 12  1  6
 13 14  1  0
 14 15  1  0
 15 16  1  0
 16 17  1  0
 17 18  1  6
 17 19  1  0
 19 20  1  0
 20 21  1  0
 21 22  1  0
 22 23  1  0
 23 24  1  0
 24 25  1  0
 25 26  1  0
 26 27  1  0
 27 28  1  0
 28 29  1  1
 28 30  1  0
 30 31  1  0
 31 32  1  0
 32 33  1  0
 33 34  1  0
 34 35  1  0
 35 36  1  0
 36 37  1  0
 37 38  1  0
 38 39  1  0
 39 40  1  1
 39 41  1  0
 41 42  1  0
 42 43  1  0
 43 44  1  0
 44 45  1  0
 45 46  1  0
 46 47  1  6
 46 48  1  0
 48 49  1  0
 49 50  1  0
 50 51  1  0
 51 52  1  6
 51  1  1  0
 13  7  1  0
M  RAD  4   3   2  12   2  42   2  49   3
M  END
$$$$
