
     RDKit          3D

 25 25  0  0  0  0  0  0  0  0999 V2000
    2.4380   -0.4684    1.6973 C   0  0  0  0  0  0  0  0  0  0  0  0
    2.6816    0.4121    0.5522 C   0  0  1  0  0  0  0  0  0  0  0  0
    3.9600    1.2271    0.8013 C   0  0  0  0  0  0  0  0  0  0  0  0
    5.1119    0.2627    0.5487 C   0  0  2  0  0  0  0  0  0  0  0  0
    5.4050    0.3496   -0.8205 O   0  0  0  0  0  0  0  0  0  0  0  0
    4.5996   -1.1475    0.7759 C   0  0  2  0  0  0  0  0  0  0  0  0
    5.6301   -2.0447    1.0354 O   0  0  0  0  0  0  0  0  0  0  0  0
    3.8066   -1.5101   -0.4565 C   0  0  1  0  0  0  0  0  0  0  0  0
    3.0817   -2.6672   -0.2992 O   0  0  0  0  0  0  0  0  0  0  0  0
    2.9468   -0.2747   -0.7979 C   0  0  1  0  0  0  0  0  0  0  0  0
    1.6417   -0.7417   -1.2188 N   0  0  0  0  0  0  0  0  0  0  0  0
    0.7824    0.5155   -1.0941 C   0  0  0  0  0  3  0  0  0  0  0  0
   -0.0176    0.0789    0.1867 C   0  0  0  0  0  0  0  0  0  0  0  0
   -1.3683    0.5701    0.0641 C   0  0  0  0  0  0  0  0  0  0  0  0
   -1.5092    1.9336    0.0258 O   0  0  0  0  0  0  0  0  0  0  0  0
   -1.7805    0.1391   -1.4184 C   0  0  0  0  0  0  0  0  0  0  0  0
   -1.7147   -1.2391   -1.3989 O   0  0  0  0  0  0  0  0  0  0  0  0
   -2.4230   -0.1961    0.8831 C   0  0  1  0  0  0  0  0  0  0  0  0
   -2.4486    0.4741    2.1389 O   0  0  0  0  0  0  0  0  0  0  0  0
   -3.7287   -0.0283    0.1084 C   0  0  2  0  0  0  0  0  0  0  0  0
   -3.7398    1.1025   -0.7016 O   0  0  0  0  0  0  0  0  0  0  0  0
   -4.6805    0.4397    1.2816 C   0  0  0  0  0  3  0  0  0  0  0  0
   -5.8681    1.1697    0.7909 C   0  0  0  0  0  0  0  0  0  0  0  0
   -5.8067    1.1366   -0.6465 O   0  0  0  0  0  0  0  0  0  0  0  0
   -6.9998    0.5065   -0.9030 O   0  0  0  0  0  0  0  0  0  0  0  0
  2  1  1  1
  2  3  1  0
  3  4  1  0
  4  5  1  6
  4  6  1  0
  6  7  1  6
  6  8  1  0
  8  9  1  1
  8 10  1  0
 10 11  1  1
 11 12  1  0
 12 13  1  0
 13 14  1  0
 14 15  1  0
 14 16  1  0
 16 17  1  0
 14 18  1  0
 18 19  1  1
 18 20  1  0
 20 21  1  6
 20 22  1  0
 22 23  1  0
 23 24  1  0
 24 25  1  0
 10  2  1  0
M  RAD  2  12   2  22   2
M  END
$$$$
