
     RDKit          3D

 26 27  0  0  0  0  0  0  0  0999 V2000
    4.5780   -2.3371   -0.0718 C   0  0  0  0  0  0  0  0  0  0  0  0
    4.2280   -1.4370    1.0686 C   0  0  0  0  0  0  0  0  0  0  0  0
    5.1049   -0.2076    1.1429 C   0  0  0  0  0  0  0  0  0  0  0  0
    2.7603   -1.1096    1.1375 C   0  0  0  0  0  0  0  0  0  0  0  0
    2.3213   -0.4160   -0.1277 C   0  0  0  0  0  0  0  0  0  0  0  0
    3.0318    0.8562   -0.3916 C   0  0  0  0  0  0  0  0  0  0  0  0
    2.2334    2.0411    0.1210 C   0  0  1  0  0  0  0  0  0  0  0  0
    2.9460    3.3415   -0.0474 C   0  0  0  0  0  0  0  0  0  0  0  0
    0.9623    2.0522   -0.7314 C   0  0  0  0  0  3  0  0  0  0  0  0
    0.1644    0.8660   -0.3304 C   0  0  0  0  0  0  0  0  0  0  0  0
   -0.5148    1.1534    0.9917 C   0  0  0  0  0  0  0  0  0  0  0  0
   -1.5066    2.2698    0.7452 C   0  0  1  0  0  0  0  0  0  0  0  0
   -0.7125    3.5643    0.7026 C   0  0  0  0  0  0  0  0  0  0  0  0
   -2.1090    2.0287   -0.6337 C   0  0  0  0  0  0  0  0  0  0  0  0
   -3.2420    1.0189   -0.5391 C   0  0  0  0  0  0  0  0  0  0  0  0
   -4.4358    1.6840   -1.0513 N   0  0  0  0  0  1  0  0  0  0  0  0
   -3.4320    0.5138    0.8662 C   0  0  0  0  0  0  0  0  0  0  0  0
   -2.6759   -0.7752    1.0682 C   0  0  0  0  0  0  0  0  0  0  0  0
   -2.9258   -1.7905    0.0029 C   0  0  0  0  0  0  0  0  0  0  0  0
   -3.7008   -1.3093   -1.0494 O   0  0  0  0  0  0  0  0  0  0  0  0
   -1.6905   -2.3989   -0.5735 C   0  0  0  0  0  0  0  0  0  0  0  0
   -2.1128   -3.6959   -1.2752 C   0  0  0  0  0  0  0  0  0  0  0  0
   -0.7612   -2.7530    0.3802 O   0  0  0  0  0  0  0  0  0  0  0  0
    0.1225   -1.4515    1.0085 S   0  0  0  0  0  0  0  0  0  0  0  0
    0.8631   -0.4249   -0.3198 C   0  0  0  0  0  0  0  0  0  0  0  0
    0.5037   -1.2835   -1.9003 S   0  0  0  0  0  0  0  0  0  0  0  0
  1  2  1  0
  2  3  1  0
  2  4  1  0
  4  5  1  0
  5  6  1  0
  6  7  1  0
  7  8  1  6
  7  9  1  0
  9 10  1  0
 10 11  1  0
 11 12  1  0
 12 13  1  6
 12 14  1  0
 14 15  1  0
 15 16  1  0
 15 17  1  0
 17 18  1  0
 18 19  1  0
 19 20  1  0
 19 21  1  0
 21 22  1  0
 21 23  1  0
 23 24  1  0
 24 25  1  0
 25 26  1  0
 25  5  1  0
 25 10  1  0
M  CHG  1  16   1
M  RAD  2   9   2  16   2
M  END
$$$$
