
     RDKit          3D

 30 30  0  0  0  0  0  0  0  0999 V2000
   -0.9812    2.5399    2.9855 C   0  0  0  0  0  0  0  0  0  0  0  0
   -1.7752    1.4584    2.2850 C   0  0  0  0  0  0  0  0  0  0  0  0
   -1.7857    1.7377    0.8233 C   0  0  0  0  0  0  0  0  0  0  0  0
   -2.5395    0.7448    0.0078 C   0  0  0  0  0  0  0  0  0  0  0  0
   -2.4980    1.1010   -1.4252 C   0  0  0  0  0  0  0  0  0  0  0  0
   -2.8460    2.5711   -1.5508 C   0  0  0  0  0  0  0  0  0  0  0  0
   -4.1085    2.9020   -0.7755 C   0  0  0  0  0  0  0  0  0  0  0  0
   -5.0448    1.7404   -0.7719 C   0  0  0  0  0  0  0  0  0  0  0  0
   -4.9999    0.8222   -1.6138 N   0  0  0  0  0  0  0  0  0  0  0  0
   -5.6418   -0.3416   -1.9288 C   0  0  0  0  0  0  0  0  0  0  0  0
   -7.0760   -0.7267   -1.7117 C   0  0  0  0  0  0  0  0  0  0  0  0
   -4.9427   -1.3424   -2.5409 C   0  0  0  0  0  0  0  0  0  0  0  0
   -3.5556   -1.1707   -2.8489 C   0  0  0  0  0  0  0  0  0  0  0  0
   -2.5299   -1.3240   -2.0340 C   0  0  0  0  0  0  0  0  0  0  0  0
   -0.8104   -0.9954   -2.8470 Br  0  0  0  0  0  0  0  0  0  0  0  0
   -2.5594   -1.7076   -0.6368 C   0  0  0  0  0  0  0  0  0  0  0  0
   -2.3789   -0.6646    0.3896 C   0  0  0  0  0  0  0  0  0  0  0  0
   -3.2892   -1.0572    1.5701 C   0  0  0  0  0  0  0  0  0  0  0  0
   -1.0525   -0.8267    0.9261 O   0  0  0  0  0  0  0  0  0  0  0  0
    0.0946   -0.5723    0.2388 C   0  0  0  0  0  0  0  0  0  0  0  0
    1.1383   -1.3842    0.1347 C   0  0  0  0  0  0  0  0  0  0  0  0
    2.2767   -0.8720   -0.6775 C   0  0  0  0  0  0  0  0  0  0  0  0
    3.5003   -0.8111    0.1121 C   0  0  0  0  0  0  0  0  0  0  0  0
    4.5113   -0.7532    0.7835 C   0  0  0  0  0  0  0  0  0  0  0  0
    5.6380   -0.6706    1.5510 O   0  0  0  0  0  0  0  0  0  0  0  0
    6.8866   -0.9145    0.8996 C   0  0  0  0  0  0  0  0  0  0  0  0
    8.0243   -0.7909    1.8680 C   0  0  0  0  0  0  0  0  0  0  0  0
    8.9942    0.1002    1.6917 C   0  0  0  0  0  0  0  0  0  0  0  0
    8.9408    0.9870    0.5075 C   0  0  0  0  0  0  0  0  0  0  0  0
   10.4104    0.2209    2.9376 Br  0  0  0  0  0  0  0  0  0  0  0  0
  1  2  1  0
  2  3  1  0
  3  4  1  0
  4  5  1  0
  5  6  1  0
  6  7  1  0
  7  8  1  0
  8  9  2  3
  9 10  1  0
 10 11  1  0
 10 12  2  3
 12 13  1  0
 13 14  2  3
 14 15  1  0
 14 16  1  0
 16 17  1  0
 17 18  1  0
 17 19  1  0
 19 20  1  0
 20 21  2  3
 21 22  1  0
 22 23  1  0
 23 24  3  0
 24 25  1  0
 25 26  1  0
 26 27  1  0
 27 28  2  3
 28 29  1  0
 28 30  1  0
 17  4  1  0
M  END
$$$$
