
     RDKit          3D

 30 31  0  0  0  0  0  0  0  0999 V2000
   -2.8942   -2.9274   -3.4643 C   0  0  2  0  0  0  0  0  0  0  0  0
   -4.0210   -2.0369   -2.8513 C   0  0  0  0  0  0  0  0  0  0  0  0
   -3.2741   -0.9501   -2.0975 C   0  0  0  0  0  0  0  0  0  0  0  0
   -2.4676   -0.1575   -2.7500 C   0  0  0  0  0  0  0  0  0  0  0  0
   -1.6847    1.0962   -1.3528 S   0  0  0  0  0  0  0  0  0  0  0  0
   -1.8909    2.2293   -1.4098 N   0  0  0  0  0  0  0  0  0  0  0  0
   -2.4166    3.3670   -0.6724 N   0  0  0  0  0  0  0  0  0  0  0  0
   -2.5098    3.0756    0.7165 N   0  0  0  0  0  0  0  0  0  0  0  0
   -3.3110    2.1704    1.0616 N   0  0  0  0  0  0  0  0  0  0  0  0
   -4.3536    1.1982    0.0158 P   0  0  0  0  0  0  0  0  0  0  0  0
   -3.5836   -0.7872   -0.3596 S   0  0  0  0  0  0  0  0  0  0  0  0
   -2.8482   -4.2523   -2.8099 C   0  0  0  0  0  2  0  0  0  0  0  0
   -1.6952   -2.1891   -3.5666 N   0  0  0  0  0  0  0  0  0  0  0  0
   -0.6388   -2.3374   -2.6691 C   0  0  0  0  0  0  0  0  0  0  0  0
   -0.5357   -3.6480   -1.9977 C   0  0  0  0  0  0  0  0  0  0  0  0
   -0.4759   -4.6631   -1.4781 N   0  0  0  0  0  0  0  0  0  0  0  0
    0.6675   -2.2377   -3.5074 C   0  0  0  0  0  0  0  0  0  0  0  0
   -0.4684   -1.3668   -1.6837 O   0  0  0  0  0  0  0  0  0  0  0  0
   -0.0503   -0.2668   -1.2620 S   0  0  0  0  0  0  0  0  0  0  0  0
    1.3257    0.6754   -0.4897 S   0  0  0  0  0  0  0  0  0  0  0  0
    1.1772    0.5573    1.3271 C   0  0  0  0  0  3  0  0  0  0  0  0
    2.2143    1.2905    1.8698 O   0  0  0  0  0  0  0  0  0  0  0  0
    1.7564    2.3132    2.6871 C   0  0  0  0  0  0  0  0  0  0  0  0
    2.8435    3.1068    3.2842 C   0  0  0  0  0  0  0  0  0  0  0  0
    4.0981    2.7935    3.0064 C   0  0  0  0  0  0  0  0  0  0  0  0
    4.4450    1.6539    2.1015 C   0  0  0  0  0  0  0  0  0  0  0  0
    5.2265    0.7543    2.8930 O   0  0  0  0  0  0  0  0  0  0  0  0
    4.5854    0.2436    4.0298 C   0  0  0  0  0  0  0  0  0  0  0  0
    5.1461    0.4530    5.1806 C   0  0  0  0  0  0  0  0  0  0  0  0
    5.6341    0.8422    6.2484 O   0  0  0  0  0  0  0  0  0  0  0  0
  1  2  1  0
  2  3  1  0
  3  4  2  3
  4  5  1  0
  5  6  1  0
  6  7  1  0
  7  8  1  0
  8  9  2  3
  9 10  1  0
 10 11  1  0
  1 12  1  1
  1 13  1  0
 13 14  1  0
 14 15  1  0
 15 16  3  0
 14 17  1  0
 14 18  1  0
 18 19  1  0
 19 20  1  0
 20 21  1  0
 21 22  1  0
 22 23  1  0
 23 24  1  0
 24 25  2  3
 25 26  1  0
 26 27  1  0
 27 28  1  0
 28 29  2  0
 29 30  2  0
 11  3  1  0
 19  5  1  0
M  RAD  2  12   3  21   2
M  END
$$$$
