
     RDKit          3D

 25 25  0  0  0  0  0  0  0  0999 V2000
   -3.5008   -0.0972   -1.4442 C   0  0  0  0  0  0  0  0  0  0  0  0
   -3.8533    0.7466   -0.2339 C   0  0  0  0  0  0  0  0  0  0  0  0
   -4.4253    2.0422   -0.7477 C   0  0  0  0  0  0  0  0  0  0  0  0
   -4.8454   -0.0065    0.5935 C   0  0  0  0  0  0  0  0  0  0  0  0
   -2.5671    0.9958    0.5264 C   0  0  0  0  0  0  0  0  0  0  0  0
   -1.9159   -0.2650    0.9836 C   0  0  0  0  0  0  0  0  0  0  0  0
   -2.0542   -1.4069   -0.0014 C   0  0  0  0  0  0  0  0  0  0  0  0
   -3.1534   -2.1834    0.4189 O   0  0  0  0  0  0  0  0  0  0  0  0
   -0.7849   -2.2299    0.0583 C   0  0  0  0  0  3  0  0  0  0  0  0
   -0.5793   -3.0400   -1.1956 C   0  0  0  0  0  0  0  0  0  0  0  0
    0.8602   -3.4859   -1.3057 C   0  0  0  0  0  0  0  0  0  0  0  0
    1.7139   -2.8963   -0.2055 C   0  0  0  0  0  0  0  0  0  0  0  0
    2.3793   -1.7045   -0.6942 N   0  0  0  0  0  0  0  0  0  0  0  0
    3.3156   -1.2273    0.3150 C   0  0  0  0  0  0  0  0  0  0  0  0
    2.9888   -1.8947    1.6546 C   0  0  0  0  0  0  0  0  0  0  0  0
    3.2278    0.2859    0.4647 C   0  0  0  0  0  0  0  0  0  0  0  0
    4.4783    0.8947   -0.0924 C   0  0  0  0  0  0  0  0  0  0  0  0
    3.0922    0.6169    1.9362 C   0  0  0  0  0  0  0  0  0  0  0  0
    1.9784    0.7325   -0.2237 C   0  0  0  0  0  0  0  0  0  0  0  0
    1.9428    2.2111   -0.5042 C   0  0  1  0  0  0  0  0  0  0  0  0
    0.5617    2.5156   -1.0524 C   0  0  0  0  0  0  0  0  0  0  0  0
   -0.3958    1.6339   -0.3414 C   0  0  0  0  0  0  0  0  0  0  0  0
   -1.6803    1.9199   -0.1909 C   0  0  0  0  0  0  0  0  0  0  0  0
    2.1422    3.0549    0.7174 C   0  0  0  0  0  3  0  0  0  0  0  0
    1.0745    2.7876    1.7383 C   0  0  0  0  0  0  0  0  0  0  0  0
  1  2  1  0
  2  3  1  0
  2  4  1  0
  2  5  1  0
  5  6  1  0
  6  7  1  0
  7  8  1  0
  7  9  1  0
  9 10  1  0
 10 11  1  0
 11 12  1  0
 12 13  1  0
 13 14  1  0
 14 15  1  0
 14 16  1  0
 16 17  1  0
 16 18  1  0
 16 19  1  0
 19 20  1  0
 20 21  1  0
 21 22  1  0
 22 23  2  3
 20 24  1  1
 24 25  1  0
 23  5  1  0
M  RAD  2   9   2  24   2
M  END
$$$$
