
     RDKit          3D

 29 29  0  0  0  0  0  0  0  0999 V2000
    8.3692    1.7124   -1.9459 C   0  0  0  0  0  0  0  0  0  0  0  0
    7.7954    0.3446   -1.6388 C   0  0  0  0  0  0  0  0  0  0  0  0
    8.6137   -0.6687   -2.4441 C   0  0  0  0  0  0  0  0  0  0  0  0
    6.3640    0.2197   -2.1332 C   0  0  0  0  0  0  0  0  0  0  0  0
    5.5240    1.2823   -1.4348 C   0  0  0  0  0  0  0  0  0  0  0  0
    5.5606    1.0873    0.0691 C   0  0  0  0  0  0  0  0  0  0  0  0
    5.0130   -0.2704    0.4185 C   0  0  1  0  0  0  0  0  0  0  0  0
    5.0514   -0.4606    1.9199 C   0  0  0  0  0  0  0  0  0  0  0  0
    3.5391   -0.3140    0.0186 C   0  0  0  0  0  3  0  0  0  0  0  0
    3.0085   -1.6721    0.3728 C   0  0  0  0  0  0  0  0  0  0  0  0
    1.5630   -1.7419   -0.0094 C   0  0  0  0  0  0  0  0  0  0  0  0
    0.7125   -0.7071    0.6993 C   0  0  1  0  0  0  0  0  0  0  0  0
    1.2461    0.6617    0.3273 C   0  0  0  0  0  0  0  0  0  0  0  0
   -0.6969   -0.8822    0.2388 C   0  0  0  0  0  0  0  0  0  0  0  0
   -1.6664    0.0710    0.8507 C   0  0  0  0  0  0  0  0  0  0  0  0
   -1.7352   -0.0348    2.3592 C   0  0  0  0  0  2  0  0  0  0  0  0
   -1.4193    1.5123    0.4753 C   0  0  0  0  0  3  0  0  0  0  0  0
   -2.3759    1.9992   -0.5832 C   0  0  0  0  0  0  0  0  0  0  0  0
   -2.5554    1.0118   -1.6988 C   0  0  0  0  0  0  0  0  0  0  0  0
   -3.9974    0.9464   -2.1335 C   0  0  0  0  0  0  0  0  0  0  0  0
   -4.7663    2.0612   -1.4814 C   0  0  0  0  0  0  0  0  0  0  0  0
   -5.8430    1.5111   -0.7536 O   0  0  0  0  0  0  0  0  0  0  0  0
   -5.7658    0.1311   -0.7047 C   0  0  0  0  0  3  0  0  0  0  0  0
   -6.4601   -0.3066    0.5770 C   0  0  0  0  0  3  0  0  0  0  0  0
   -5.9886    0.5790    1.7025 C   0  0  0  0  0  0  0  0  0  0  0  0
   -7.0728    0.8209    2.5473 O   0  0  0  0  0  0  0  0  0  0  0  0
   -4.9672   -0.0618    2.5133 N   0  0  0  0  0  0  0  0  0  0  0  0
   -3.9959   -1.1846    1.5656 S   0  0  0  0  0  0  0  0  0  0  0  0
   -3.0543   -0.2851    0.3062 C   0  0  0  0  0  0  0  0  0  0  0  0
  1  2  1  0
  2  3  1  0
  2  4  1  0
  4  5  1  0
  5  6  1  0
  6  7  1  0
  7  8  1  1
  7  9  1  0
  9 10  1  0
 10 11  1  0
 11 12  1  0
 12 13  1  6
 12 14  1  0
 14 15  1  0
 15 16  1  0
 15 17  1  0
 17 18  1  0
 18 19  1  0
 19 20  1  0
 20 21  1  0
 21 22  1  0
 22 23  1  0
 23 24  1  0
 24 25  1  0
 25 26  1  0
 25 27  1  0
 27 28  1  0
 28 29  1  0
 29 15  1  0
M  RAD  5   9   2  16   3  17   2  23   2  24   2
M  END
$$$$
