
     RDKit          3D

 26 28  0  0  0  0  0  0  0  0999 V2000
    1.4411   -1.6905    1.2977 C   0  0  0  0  0  0  0  0  0  0  0  0
    2.2592   -0.4395    1.2197 C   0  0  1  0  0  0  0  0  0  0  0  0
    3.7257   -0.6798    1.5572 C   0  0  0  0  0  0  0  0  0  0  0  0
    4.4861    0.5096    0.9633 C   0  0  2  0  0  0  0  0  0  0  0  0
    3.6639    1.6372    1.1410 O   0  0  0  0  0  0  0  0  0  0  0  0
    4.6156    0.3283   -0.5452 C   0  0  2  0  0  0  0  0  0  0  0  0
    4.6425    1.6100   -1.1074 O   0  0  0  0  0  0  0  0  0  0  0  0
    3.3305   -0.3236   -1.0462 C   0  0  1  0  0  0  0  0  0  0  0  0
    3.4490   -1.7183   -0.9554 O   0  0  0  0  0  0  0  0  0  0  0  0
    2.2190    0.1521   -0.1626 C   0  0  1  0  0  0  0  0  0  0  0  0
    0.9257    0.1002   -0.7645 N   0  0  0  0  0  0  0  0  0  0  0  0
    0.6227   -1.1198   -1.4423 C   0  0  0  0  0  3  0  0  0  0  0  0
   -0.8466   -1.1134   -1.7908 C   0  0  0  0  0  0  0  0  0  0  0  0
   -1.5656   -0.0267   -1.0061 C   0  0  0  0  0  0  0  0  0  0  0  0
   -0.9299    1.2200   -1.1731 O   0  0  0  0  0  0  0  0  0  0  0  0
   -3.2554    0.1672   -1.6137 S   0  0  0  0  0  0  0  0  0  0  0  0
   -3.7304    1.8127   -1.3656 O   0  0  0  0  0  0  0  0  0  0  0  0
   -4.7936    1.9012   -0.5442 N   0  0  0  0  0  0  0  0  0  0  0  0
   -4.7729    0.8105    0.2539 O   0  0  0  0  0  0  0  0  0  0  0  0
   -3.5791    0.7732    0.9558 C   0  0  1  0  0  0  0  0  0  0  0  0
   -3.8568    1.1902    2.2587 O   0  0  0  0  0  0  0  0  0  0  0  0
   -2.9341   -0.5968    0.9352 C   0  0  2  0  0  0  0  0  0  0  0  0
   -3.0122   -1.2143    2.1769 O   0  0  0  0  0  0  0  0  0  0  0  0
   -1.5220   -0.4232    0.4498 C   0  0  1  0  0  0  0  0  0  0  0  0
   -0.7207   -1.5302    0.6845 O   0  0  0  0  0  0  0  0  0  0  0  0
    0.1382   -1.3363    1.6662 O   0  0  0  0  0  0  0  0  0  0  0  0
  2  1  1  6
  2  3  1  0
  3  4  1  0
  4  5  1  6
  4  6  1  0
  6  7  1  6
  6  8  1  0
  8  9  1  1
  8 10  1  0
 10 11  1  6
 11 12  1  0
 12 13  1  0
 13 14  1  0
 14 15  1  0
 14 16  1  0
 16 17  1  0
 17 18  1  0
 18 19  1  0
 19 20  1  0
 20 21  1  1
 20 22  1  0
 22 23  1  1
 22 24  1  0
 24 25  1  6
 25 26  1  0
 26  1  1  0
 10  2  1  0
 24 14  1  0
M  RAD  1  12   2
M  END
$$$$
