
     RDKit          3D

  8  7  0  0  0  0  0  0  0  0999 V2000
    2.1960    1.8939    0.5163 O   0  0  0  0  0  1  0  0  0  0  0  0
    2.4332    0.1734    0.6560 P   0  0  0  0  0  0  0  0  0  0  0  0
    0.9816   -0.6453   -0.1160 C   0  0  0  0  0  0  0  0  0  0  0  0
    1.0256   -1.8415   -0.5166 O   0  0  0  0  0  0  0  0  0  0  0  0
   -0.2191    0.0283   -0.2856 O   0  0  0  0  0  0  0  0  0  0  0  0
   -1.3253   -0.6255   -0.8843 C   0  0  0  0  0  0  0  0  0  0  0  0
   -2.3817    0.3021   -0.9171 O   0  0  0  0  0  0  0  0  0  0  0  0
   -2.7103    0.7147    0.3280 N   0  0  0  0  0  2  0  0  0  0  0  0
  1  2  1  0
  2  3  1  0
  3  4  2  0
  3  5  1  0
  5  6  1  0
  6  7  1  0
  7  8  1  0
M  CHG  1   1  -1
M  RAD  1   8   2
M  END
$$$$
