
     RDKit          3D

 14 14  0  0  0  0  0  0  0  0999 V2000
    2.2089   -0.5400    3.5980 C   0  0  0  0  0  0  0  0  0  0  0  0
    2.5211   -0.1781    2.1802 C   0  0  0  0  0  0  0  0  0  0  0  0
    1.5955   -0.0328    1.2774 C   0  0  0  0  0  0  0  0  0  0  0  0
    1.9478    0.3146   -0.0668 C   0  0  0  0  0  0  0  0  0  0  0  0
    1.1197    0.4917   -1.0721 C   0  0  0  0  0  0  0  0  0  0  0  0
    1.2869    0.8374   -2.4679 C   0  0  0  0  0  0  0  0  0  0  0  0
    2.1825    1.1051   -3.3060 O   0  0  0  0  0  0  0  0  0  0  0  0
   -0.1711    0.7315   -2.4868 C   0  0  0  0  0  0  0  0  0  0  0  0
   -0.3232    0.4131   -1.2003 C   0  0  0  0  0  0  0  0  0  0  0  0
   -1.4361    0.1162   -0.3091 C   0  0  0  0  0  0  0  0  0  0  0  0
   -1.2586   -0.1721    0.9558 C   0  0  0  0  0  0  0  0  0  0  0  0
   -2.3725   -0.4673    1.8398 C   0  0  0  0  0  0  0  0  0  0  0  0
   -3.6561   -0.3923    1.1181 C   0  0  0  0  0  0  0  0  0  0  0  0
   -3.6448   -0.1104   -0.0604 O   0  0  0  0  0  0  0  0  0  0  0  0
  1  2  1  0
  2  3  2  3
  3  4  1  0
  4  5  2  3
  5  6  1  0
  6  7  2  0
  6  8  1  0
  8  9  2  0
  9 10  1  0
 10 11  2  3
 11 12  1  0
 12 13  1  0
 13 14  2  0
  9  5  1  0
M  END
$$$$
