
     RDKit          3D

 30 30  0  0  0  0  0  0  0  0999 V2000
    4.7999    3.8666    0.2814 C   0  0  0  0  0  0  0  0  0  0  0  0
    5.3256    3.3713    1.6114 C   0  0  0  0  0  0  0  0  0  0  0  0
    4.6923    4.1497    2.7450 C   0  0  0  0  0  0  0  0  0  0  0  0
    4.8905    1.9185    1.7627 C   0  0  0  0  0  0  0  0  0  0  0  0
    5.4750    1.1163    0.6201 C   0  0  0  0  0  0  0  0  0  0  0  0
    5.0446   -0.3059    0.7750 C   0  0  0  0  0  0  0  0  0  0  0  0
    3.5107   -0.4080    0.7443 C   0  0  1  0  0  0  0  0  0  0  0  0
    3.0028    0.1162   -0.5632 C   0  0  0  0  0  0  0  0  0  0  0  0
    3.1839   -1.8786    0.8724 C   0  0  0  0  0  3  0  0  0  0  0  0
    3.7436   -2.5983   -0.3302 C   0  0  0  0  0  0  0  0  0  0  0  0
    2.9984   -2.3038   -1.6060 C   0  0  0  0  0  0  0  0  0  0  0  0
    1.5728   -2.8477   -1.4271 C   0  0  0  0  0  0  0  0  0  0  0  0
    1.7685   -4.3604   -1.1934 C   0  0  0  0  0  0  0  0  0  0  0  0
    0.7798   -2.6171   -2.6721 C   0  0  0  0  0  0  0  0  0  0  0  0
    1.0379   -2.2893   -0.2812 O   0  0  0  0  0  0  0  0  0  0  0  0
   -0.2445   -2.7774   -0.0930 C   0  0  0  0  0  0  0  0  0  0  0  0
   -1.0849   -2.3803   -1.2818 C   0  0  0  0  0  0  0  0  0  0  0  0
   -1.0735   -0.8519   -1.3343 C   0  0  0  0  0  0  0  0  0  0  0  0
   -1.6540   -0.3604   -0.0581 C   0  0  0  0  0  0  0  0  0  0  0  0
   -1.7420    1.1105    0.1107 C   0  0  0  0  0  0  0  0  0  0  0  0
   -2.7426   -1.1721    0.5333 C   0  0  0  0  0  0  0  0  0  0  0  0
   -3.9648   -1.3433   -0.3261 C   0  0  0  0  0  0  0  0  0  0  0  0
   -4.6396   -0.0646   -0.6865 C   0  0  0  0  0  0  0  0  0  0  0  0
   -5.1147    0.7253    0.4725 C   0  0  0  0  0  0  0  0  0  0  0  0
   -3.8734    0.6555   -1.5756 O   0  0  0  0  0  0  0  0  0  0  0  0
   -4.4397    1.8455   -1.8932 N   0  0  0  0  0  0  0  0  0  0  0  0
   -4.5933    2.7214   -0.7774 C   0  0  0  0  0  0  0  0  0  0  0  0
   -5.0960    2.0482    0.4373 C   0  0  0  0  0  0  0  0  0  0  0  0
   -5.5695    2.8780    1.5919 C   0  0  0  0  0  0  0  0  0  0  0  0
   -5.9938    2.0360    2.6145 O   0  0  0  0  0  1  0  0  0  0  0  0
  1  2  1  0
  2  3  1  0
  2  4  1  0
  4  5  1  0
  5  6  1  0
  6  7  1  0
  7  8  1  6
  7  9  1  0
  9 10  1  0
 10 11  1  0
 11 12  1  0
 12 13  1  0
 12 14  1  0
 12 15  1  0
 15 16  1  0
 16 17  1  0
 17 18  1  0
 18 19  1  0
 19 20  1  0
 19 21  1  0
 21 22  1  0
 22 23  1  0
 23 24  1  0
 23 25  1  0
 25 26  1  0
 26 27  1  0
 27 28  1  0
 28 29  1  0
 29 30  1  0
 24 28  2  0
M  CHG  1  30  -1
M  RAD  1   9   2
M  END
$$$$
