
     RDKit          3D

 24 24  0  0  0  0  0  0  0  0999 V2000
   -5.8655   -0.9219    0.2549 N   0  0  0  0  0  0  0  0  0  0  0  0
   -5.2022   -2.2419    0.4821 N   0  0  0  0  0  3  0  0  0  0  0  0
   -3.9591   -1.5383    0.9904 C   0  0  0  0  0  0  0  0  0  0  0  0
   -3.2291   -1.4890   -0.1493 C   0  0  0  0  0  0  0  0  0  0  0  0
   -2.0227   -0.5642    0.3489 C   0  0  0  0  0  0  0  0  0  0  0  0
   -2.4969    0.4543    0.4344 N   0  0  0  0  0  4  0  0  0  0  0  0
   -2.8972    1.3077    0.5032 C   0  0  0  0  0  0  0  0  0  0  0  0
   -3.3934    2.3773    0.5879 C   0  0  0  0  0  0  0  0  0  0  0  0
   -4.7429    2.4410   -0.3451 N   0  0  0  0  0  0  0  0  0  0  0  0
   -5.7071    1.5468    0.2194 C   0  0  0  0  0  3  0  0  0  0  0  0
   -5.2202    0.2459    0.5178 O   0  0  0  0  0  0  0  0  0  0  0  0
   -1.8038    0.0080   -1.3264 N   0  0  0  0  0  0  0  0  0  0  0  0
   -0.7502    0.8741   -1.0843 N   0  0  0  0  0  0  0  0  0  0  0  0
    0.0497    0.3332   -0.1089 O   0  0  0  0  0  0  0  0  0  0  0  0
    0.1804   -1.3587   -0.5229 S   0  0  0  0  0  0  0  0  0  0  0  0
    1.6515   -1.9399    0.3386 C   0  0  0  0  0  0  0  0  0  0  0  0
    2.9416   -0.7045    0.3234 S   0  0  0  0  0  0  0  0  0  0  0  0
    4.1708   -1.0179   -0.8043 O   0  0  0  0  0  0  0  0  0  0  0  0
    5.3894   -0.9871   -0.1322 N   0  0  0  0  0  0  0  0  0  0  0  0
    5.1665   -0.3184    1.0195 O   0  0  0  0  0  0  0  0  0  0  0  0
    5.5131    0.9518    1.3308 N   0  0  0  0  0  0  0  0  0  0  0  0
    6.5487    1.5110    0.8929 C   0  0  0  0  0  0  0  0  0  0  0  0
    7.4564    0.8166   -0.0917 C   0  0  0  0  0  0  0  0  0  0  0  0
    8.2224    0.2142   -0.9402 C   0  0  0  0  0  0  0  0  0  0  0  0
  1  2  2  3
  2  3  1  0
  3  4  2  3
  4  5  1  0
  5  6  1  0
  6  7  3  0
  7  8  1  0
  8  9  1  0
  9 10  1  0
 10 11  1  0
  5 12  1  0
 12 13  1  0
 13 14  1  0
 14 15  1  0
 15 16  1  0
 16 17  1  0
 17 18  1  0
 18 19  1  0
 19 20  1  0
 20 21  1  0
 21 22  2  3
 22 23  1  0
 23 24  3  0
 11  1  1  0
M  CHG  2   2   1   6   1
M  RAD  2   2   2  10   2
M  END
$$$$
