
     RDKit          3D

 17 16  0  0  0  0  0  0  0  0999 V2000
    4.0134    0.1918    1.2480 C   0  0  0  0  0  0  0  0  0  0  0  0
    4.5702    0.1171   -0.1468 C   0  0  0  0  0  0  0  0  0  0  0  0
    5.6149   -0.9568   -0.2228 C   0  0  0  0  0  0  0  0  0  0  0  0
    3.5096   -0.1889   -1.1844 C   0  0  0  0  0  0  0  0  0  0  0  0
    2.4867    0.9272   -1.1173 C   0  0  0  0  0  0  0  0  0  0  0  0
    1.9213    0.9172    0.2897 C   0  0  0  0  0  0  0  0  0  0  0  0
    1.2937   -0.4369    0.5003 C   0  0  1  0  0  0  0  0  0  0  0  0
    0.6851   -0.6204    1.8412 C   0  0  0  0  0  0  0  0  0  0  0  0
    0.4154   -0.8091   -0.6489 C   0  0  0  0  0  3  0  0  0  0  0  0
   -0.7156    0.1230   -0.9022 C   0  0  0  0  0  3  0  0  0  0  0  0
   -1.4980    0.4879    0.3223 C   0  0  0  0  0  0  0  0  0  0  0  0
   -2.6108    1.4345   -0.0748 C   0  0  2  0  0  0  0  0  0  0  0  0
   -3.4205    1.8221    1.1422 C   0  0  0  0  0  0  0  0  0  0  0  0
   -3.5270    0.6771   -1.0149 C   0  0  0  0  0  0  0  0  0  0  0  0
   -4.0554   -0.5044   -0.2817 C   0  0  0  0  0  0  0  0  0  0  0  0
   -4.8175   -0.3037    0.9112 N   0  0  0  0  0  1  0  0  0  0  0  0
   -3.8656   -1.7119   -0.6613 N   0  0  0  0  0  2  0  0  0  0  0  0
  1  2  1  0
  2  3  1  0
  2  4  1  0
  4  5  1  0
  5  6  1  0
  6  7  1  0
  7  8  1  1
  7  9  1  0
  9 10  1  0
 10 11  1  0
 11 12  1  0
 12 13  1  1
 12 14  1  0
 14 15  1  0
 15 16  1  0
 15 17  2  0
M  CHG  2  16   1  17  -1
M  RAD  3   9   2  10   2  16   2
M  END
$$$$
