
     RDKit          3D

 27 26  0  0  0  0  0  0  0  0999 V2000
   -6.8734   -1.8189   -0.6899 C   0  0  0  0  0  0  0  0  0  0  0  0
   -7.2086   -0.4274   -0.1644 C   0  0  0  0  0  0  0  0  0  0  0  0
   -7.0263   -0.3725    1.3301 C   0  0  0  0  0  0  0  0  0  0  0  0
   -6.3617    0.5960   -0.8819 C   0  0  0  0  0  0  0  0  0  0  0  0
   -4.8892    0.3365   -0.6608 C   0  0  0  0  0  0  0  0  0  0  0  0
   -4.5979   -1.0457   -1.2033 C   0  0  0  0  0  0  0  0  0  0  0  0
   -3.1028   -1.3802   -1.0102 C   0  0  1  0  0  0  0  0  0  0  0  0
   -2.3198   -0.3555   -1.7549 C   0  0  0  0  0  0  0  0  0  0  0  0
   -2.9006   -1.4258    0.4698 C   0  0  0  0  0  3  0  0  0  0  0  0
   -3.1667   -0.1017    1.1100 C   0  0  0  0  0  0  0  0  0  0  0  0
   -2.1697    0.9653    0.8470 C   0  0  0  0  0  0  0  0  0  0  0  0
   -0.8298    0.6262    1.4079 C   0  0  1  0  0  0  0  0  0  0  0  0
   -0.3071   -0.6424    0.8184 C   0  0  0  0  0  0  0  0  0  0  0  0
    0.1464    1.7569    1.4134 C   0  0  0  0  0  0  0  0  0  0  0  0
    0.4075    2.2736    0.0076 C   0  0  0  0  0  0  0  0  0  0  0  0
   -0.9264    2.7441   -0.5337 C   0  0  0  0  0  2  0  0  0  0  0  0
    0.8939    1.1053   -0.8211 C   0  0  0  0  0  0  0  0  0  0  0  0
    2.1241    0.5091   -0.3023 C   0  0  0  0  0  0  0  0  0  0  0  0
    3.2322    0.4531   -1.0086 C   0  0  0  0  0  0  0  0  0  0  0  0
    3.2115    0.9863   -2.2938 O   0  0  0  0  0  0  0  0  0  0  0  0
    4.4142   -0.1460   -0.4462 C   0  0  0  0  0  0  0  0  0  0  0  0
    4.9635   -1.2053   -1.0522 O   0  0  0  0  0  0  0  0  0  0  0  0
    5.1857    0.6178    0.3685 O   0  0  0  0  0  0  0  0  0  0  0  0
    6.2342    0.0367    0.8481 O   0  0  0  0  0  0  0  0  0  0  0  0
    6.1152   -1.3514    0.9060 C   0  0  0  0  0  0  0  0  0  0  0  0
    7.3354   -2.0076    1.4627 C   0  0  0  0  0  3  0  0  0  0  0  0
    8.4163   -1.0110    1.8339 C   0  0  0  0  0  2  0  0  0  0  0  0
  1  2  1  0
  2  3  1  0
  2  4  1  0
  4  5  1  0
  5  6  1  0
  6  7  1  0
  7  8  1  1
  7  9  1  0
  9 10  1  0
 10 11  1  0
 11 12  1  0
 12 13  1  6
 12 14  1  0
 14 15  1  0
 15 16  1  0
 15 17  1  0
 17 18  1  0
 18 19  2  3
 19 20  1  0
 19 21  1  0
 21 22  1  0
 21 23  1  0
 23 24  1  0
 24 25  1  0
 25 26  1  0
 26 27  1  0
M  RAD  4   9   2  16   3  26   2  27   3
M  END
$$$$
