
     RDKit          3D

 25 26  0  0  0  0  0  0  0  0999 V2000
   -5.2861   -0.7759    1.0583 C   0  0  0  0  0  0  0  0  0  0  0  0
   -4.7879   -0.8090    2.4804 C   0  0  0  0  0  0  0  0  0  0  0  0
   -5.4461    0.4928    3.1849 C   0  0  0  0  0  0  0  0  0  0  0  0
   -3.2949   -0.4452    2.5564 C   0  0  0  0  0  0  0  0  0  0  0  0
   -2.4851   -1.3784    1.6460 C   0  0  0  0  0  0  0  0  0  0  0  0
   -2.5511   -0.7016    0.2005 C   0  0  0  0  0  0  0  0  0  0  0  0
   -1.6888    0.6068    0.2168 C   0  0  1  0  0  0  0  0  0  0  0  0
   -1.3122    1.1266   -1.1089 N   0  0  0  0  0  0  0  0  0  0  0  0
   -0.6885    2.4789   -0.8912 C   0  0  0  0  0  0  0  0  0  0  0  0
   -3.2296    0.6676    0.1671 C   0  0  1  0  0  0  0  0  0  0  0  0
   -3.6443    1.1557   -1.2133 C   0  0  0  0  0  3  0  0  0  0  0  0
   -3.1446    0.2790   -2.2961 C   0  0  0  0  0  0  0  0  0  0  0  0
   -2.1954    0.8173   -3.3302 C   0  0  0  0  0  0  0  0  0  0  0  0
   -0.9006   -0.0356   -3.1073 C   0  0  0  0  0  0  0  0  0  0  0  0
   -0.3184    0.3177   -1.8063 C   0  0  2  0  0  0  0  0  0  0  0  0
    0.0674   -0.8383   -0.8817 C   0  0  0  0  0  0  0  0  0  0  0  0
    1.2836   -1.2720   -1.6837 O   0  0  0  0  0  0  0  0  0  0  0  0
    2.0860   -1.0967   -0.5638 O   0  0  0  0  0  0  0  0  0  0  0  0
    3.3180   -1.3659   -0.5402 C   0  0  0  0  0  3  0  0  0  0  0  0
    4.3117   -0.7210   -1.2629 O   0  0  0  0  0  0  0  0  0  0  0  0
    5.5045   -0.8295   -0.5210 C   0  0  0  0  0  0  0  0  0  0  0  0
    5.2061   -0.1648    0.8149 C   0  0  0  0  0  0  0  0  0  0  0  0
    6.5840   -0.1473    1.5689 C   0  0  0  0  0  0  0  0  0  0  0  0
    6.1884    0.6485    2.8531 C   0  0  0  0  0  3  0  0  0  0  0  0
    6.4241    1.9903    2.4595 O   0  0  0  0  0  0  0  0  0  0  0  0
  1  2  1  0
  2  3  1  0
  2  4  1  0
  4  5  1  0
  5  6  1  0
  7  6  1  6
  7  8  1  0
  8  9  1  0
  7 10  1  0
 10 11  1  6
 11 12  1  0
 12 13  1  0
 13 14  1  0
 14 15  1  0
 15 16  1  1
 16 17  1  0
 17 18  1  0
 18 19  1  0
 19 20  1  0
 20 21  1  0
 21 22  1  0
 22 23  1  0
 23 24  1  0
 24 25  1  0
 10  6  1  0
 15  8  1  0
M  RAD  3  11   2  19   2  24   2
M  END
$$$$
