
     RDKit          3D

 12 12  0  0  0  0  0  0  0  0999 V2000
    1.0065   -1.5525   -0.7871 C   0  0  0  0  0  0  0  0  0  0  0  0
   -0.2614   -1.0712   -1.1798 O   0  0  0  0  0  0  0  0  0  0  0  0
   -0.9898   -0.8892   -0.0277 C   0  0  0  0  0  0  0  0  0  0  0  0
   -2.2942   -1.6102   -0.0204 C   0  0  0  0  0  0  0  0  0  0  0  0
   -1.1563    0.5394    0.3782 C   0  0  0  0  0  0  0  0  0  0  0  0
   -2.0005    1.3409   -0.5833 C   0  0  0  0  0  0  0  0  0  0  0  0
   -1.9066    0.5385    1.7164 C   0  0  0  0  0  0  0  0  0  0  0  0
    0.0265    1.2022    0.5848 O   0  0  0  0  0  0  0  0  0  0  0  0
    1.0571    0.8181   -0.2398 C   0  0  2  0  0  0  0  0  0  0  0  0
    1.5378   -0.5475    0.2172 C   0  0  2  0  0  0  0  0  0  0  0  0
    2.9184   -0.5142    0.2558 O   0  0  0  0  0  1  0  0  0  0  0  0
    2.0626    1.7457   -0.3142 O   0  0  0  0  0  0  0  0  0  0  0  0
  1  2  1  0
  2  3  1  0
  3  4  1  0
  3  5  1  0
  5  6  1  0
  5  7  1  0
  5  8  1  0
  8  9  1  0
  9 10  1  0
 10 11  1  6
  9 12  1  1
 10  1  1  0
M  CHG  1  11  -1
M  END
$$$$
