
     RDKit          3D

 11 11  0  0  0  0  0  0  0  0999 V2000
   -0.5580   -2.0454   -0.4436 C   0  0  0  0  0  0  0  0  0  0  0  0
    0.5865   -1.9084    0.5288 C   0  0  0  0  0  0  0  0  0  0  0  0
    1.7567   -1.4127   -0.2673 C   0  0  0  0  0  0  0  0  0  0  0  0
    2.2338   -0.2112    0.0119 C   0  0  0  0  0  0  0  0  0  0  0  0
    1.7092    0.5911    0.9878 O   0  0  0  0  0  0  0  0  0  0  0  0
    1.6831    2.0198    0.8837 C   0  0  0  0  0  0  0  0  0  0  0  0
    0.0373    2.5572    0.3395 S   0  0  0  0  0  0  0  0  0  0  0  0
   -1.1209    1.2759    0.5897 N   0  0  0  0  0  0  0  0  0  0  0  0
   -2.1257    0.9172   -0.3472 C   0  0  0  0  0  0  0  0  0  0  0  0
   -2.4202   -0.3466   -0.5781 C   0  0  0  0  0  0  0  0  0  0  0  0
   -1.7820   -1.4369    0.0667 N   0  0  0  0  0  0  0  0  0  0  0  0
  1  2  1  0
  2  3  1  0
  3  4  2  3
  4  5  1  0
  5  6  1  0
  6  7  1  0
  7  8  1  0
  8  9  1  0
  9 10  2  3
 10 11  1  0
 11  1  1  0
M  END
$$$$
