
     RDKit          3D

 10 10  0  0  0  0  0  0  0  0999 V2000
   -3.1287   -0.2330   -1.0546 N   0  0  0  0  0  0  0  0  0  0  0  0
   -3.5679    0.0107    0.1133 C   0  0  0  0  0  0  0  0  0  0  0  0
   -2.3274    0.4861    0.5541 N   0  0  0  0  0  0  0  0  0  0  0  0
   -1.8735    0.2127   -0.7220 N   0  0  0  0  0  4  0  0  0  0  0  0
   -0.7428    0.3432   -1.2938 N   0  0  0  0  0  0  0  0  0  0  0  0
    0.6624    0.9678   -0.5180 S   0  0  0  0  0  0  0  0  0  0  0  0
    1.2005    0.0402    0.6735 C   0  0  0  0  0  0  0  0  0  0  0  0
    2.3964    0.4659    1.4148 C   0  0  0  0  0  0  0  0  0  0  0  0
    3.6597   -0.0672    0.9001 C   0  0  0  0  0  0  0  0  0  0  0  0
    3.7211   -0.8068   -0.0674 O   0  0  0  0  0  0  0  0  0  0  0  0
  1  2  2  0
  2  3  1  0
  3  4  1  0
  4  5  2  3
  5  6  1  0
  6  7  2  3
  7  8  1  0
  8  9  1  0
  9 10  2  0
  4  1  1  0
M  CHG  1   4   1
M  END
$$$$
