
     RDKit          3D

 45 45  0  0  0  0  0  0  0  0999 V2000
   -7.5292   -4.9495    2.2247 C   0  0  0  0  0  0  0  0  0  0  0  0
   -8.1938   -5.0104    0.8618 C   0  0  0  0  0  0  0  0  0  0  0  0
   -7.1462   -4.8839   -0.2324 C   0  0  2  0  0  0  0  0  0  0  0  0
   -6.1713   -6.0403   -0.0805 C   0  0  0  0  0  0  0  0  0  0  0  0
   -6.4435   -3.6120   -0.1407 N   0  0  0  0  0  0  0  0  0  0  0  0
   -5.0702   -3.5585   -0.4646 C   0  0  0  0  0  0  0  0  0  0  0  0
   -4.5117   -4.6416   -0.8293 O   0  0  0  0  0  0  0  0  0  0  0  0
   -4.2229   -2.3670   -0.4197 C   0  0  0  0  0  0  0  0  0  0  0  0
   -4.7617   -1.2727   -1.2815 C   0  0  0  0  0  0  0  0  0  0  0  0
   -3.8306   -1.9359    0.9529 C   0  0  0  0  0  0  0  0  0  0  0  0
   -2.9439   -0.6950    0.9172 C   0  0  0  0  0  0  0  0  0  0  0  0
   -1.7167   -0.9354    0.1410 C   0  0  0  0  0  0  0  0  0  0  0  0
   -1.6120   -2.0465   -0.4077 O   0  0  0  0  0  0  0  0  0  0  0  0
   -0.4642    0.1876   -0.0450 S   0  0  0  0  0  0  0  0  0  0  0  0
   -0.6636    1.3855   -1.5715 C   0  0  0  0  0  0  0  0  0  0  0  0
   -1.5478    2.3808   -1.0308 C   0  0  0  0  0  0  0  0  0  0  0  0
   -2.6395    2.0742    0.0865 S   0  0  0  0  0  0  0  0  0  0  0  0
   -3.4900    3.5986    0.4428 C   0  0  0  0  0  0  0  0  0  0  0  0
   -3.0527    4.3776    1.3507 O   0  0  0  0  0  0  0  0  0  0  0  0
   -4.6332    4.0153   -0.2169 O   0  0  0  0  0  0  0  0  0  0  0  0
   -5.2288    5.2285    0.1340 N   0  0  0  0  0  0  0  0  0  0  0  0
   -4.8890    6.2661   -0.8218 C   0  0  0  0  0  3  0  0  0  0  0  0
   -4.4277    7.4548   -0.0239 C   0  0  0  0  0  0  0  0  0  0  0  0
   -4.3819    8.5384   -0.5658 O   0  0  0  0  0  0  0  0  0  0  0  0
   -1.1780    0.4174   -2.5386 C   0  0  0  0  0  0  0  0  0  0  0  0
   -0.4024   -0.5594   -3.0789 C   0  0  0  0  0  0  0  0  0  0  0  0
    1.0545   -0.8163   -2.7991 C   0  0  0  0  0  0  0  0  0  0  0  0
    1.2386   -1.3127   -1.3883 C   0  0  0  0  0  0  0  0  0  0  0  0
    1.1835   -0.2228   -0.3457 C   0  0  0  0  0  0  0  0  0  0  0  0
    2.0894    1.2481   -0.8070 S   0  0  0  0  0  0  0  0  0  0  0  0
    1.4959    1.9240   -2.0420 O   0  0  0  0  0  0  0  0  0  0  0  0
    1.7646   -0.7751    0.9320 C   0  0  0  0  0  0  0  0  0  0  0  0
    3.2159   -1.1765    0.8090 C   0  0  0  0  0  0  0  0  0  0  0  0
    4.0018    0.0424    0.4262 C   0  0  0  0  0  0  0  0  0  0  0  0
    4.9543    0.4323    1.2731 C   0  0  0  0  0  0  0  0  0  0  0  0
    5.7270    1.6384    0.8872 C   0  0  0  0  0  0  0  0  0  0  0  0
    7.1281    1.4757    1.3575 C   0  0  0  0  0  0  0  0  0  0  0  0
    7.8123    0.3518    1.2108 C   0  0  0  0  0  0  0  0  0  0  0  0
    7.2075   -0.8225    0.5608 C   0  0  0  0  0  0  0  0  0  0  0  0
    8.1464   -1.2848   -0.9172 S   0  0  0  0  0  0  0  0  0  0  0  0
    9.8236   -1.8702   -0.4109 S   0  0  0  0  0  0  0  0  0  0  0  0
   10.7543   -1.6748   -0.0633 C   0  0  0  0  0  0  0  0  0  0  0  0
    9.1468   -3.9334   -0.4000 S   0  0  0  0  0  0  0  0  0  0  0  0
    9.4835    0.2651    1.8116 S   0  0  0  0  0  0  0  0  0  0  0  0
    4.9247    3.0946    1.5978 S   0  0  0  0  0  0  0  0  0  0  0  0
  1  2  1  0
  2  3  1  0
  3  4  1  1
  3  5  1  0
  5  6  1  0
  6  7  2  0
  6  8  1  0
  8  9  1  0
  8 10  1  0
 10 11  1  0
 11 12  1  0
 12 13  2  0
 12 14  1  0
 14 15  1  0
 15 16  1  0
 16 17  2  3
 17 18  1  0
 18 19  2  0
 18 20  1  0
 20 21  1  0
 21 22  1  0
 22 23  1  0
 23 24  2  0
 15 25  1  0
 25 26  2  0
 26 27  1  0
 27 28  1  0
 28 29  1  0
 29 30  1  0
 30 31  2  0
 29 32  1  0
 32 33  1  0
 33 34  1  0
 34 35  2  3
 35 36  1  0
 36 37  1  0
 37 38  2  3
 38 39  1  0
 39 40  1  0
 40 41  1  0
 41 42  1  0
 41 43  1  0
 38 44  1  0
 36 45  1  0
 29 14  1  0
M  RAD  1  22   2
M  END
$$$$
