
     RDKit          3D

 46 50  0  0  0  0  0  0  0  0999 V2000
   -2.7570   -0.6248    0.2553 C   0  0  0  0  0  0  0  0  0  0  0  0
   -2.5296   -1.3681    1.3933 O   0  0  0  0  0  0  0  0  0  0  0  0
   -1.8209   -0.5732    2.2941 C   0  0  0  0  0  0  0  0  0  0  0  0
   -0.3723   -0.7036    1.9612 C   0  0  2  0  0  0  0  0  0  0  0  0
    0.1355   -1.8839    2.4936 O   0  0  0  0  0  0  0  0  0  0  0  0
    0.4769    0.4305    2.4621 C   0  0  2  0  0  0  0  0  0  0  0  0
   -0.0443    1.6647    2.1409 O   0  0  0  0  0  0  0  0  0  0  0  0
    1.8672    0.2339    1.8405 C   0  0  1  0  0  0  0  0  0  0  0  0
    2.0717   -1.1311    1.7751 O   0  0  0  0  0  0  0  0  0  0  0  0
    1.7401    0.7704    0.4112 C   0  0  1  0  0  0  0  0  0  0  0  0
    1.5519    2.2223    0.5728 N   0  0  0  0  0  0  0  0  0  0  0  0
    2.8174    2.6909    1.0546 C   0  0  0  0  0  3  0  0  0  0  0  0
    3.8760    1.7227    0.5480 C   0  0  0  0  0  0  0  0  0  0  0  0
    3.0934    0.7609   -0.2791 C   0  0  0  0  0  0  0  0  0  0  0  0
    2.8778    1.3943   -1.6462 C   0  0  0  0  0  0  0  0  0  0  0  0
    4.0937    1.2801   -2.5173 C   0  0  0  0  0  0  0  0  0  0  0  0
    5.1875    1.7742   -1.7918 O   0  0  0  0  0  0  0  0  0  0  0  0
    6.1254    0.7477   -1.7386 C   0  0  0  0  0  0  0  0  0  0  0  0
    6.9197    0.8132   -0.5346 N   0  0  0  0  0  0  0  0  0  0  0  0
    7.1520   -0.5318   -0.0395 C   0  0  0  0  0  3  0  0  0  0  0  0
    6.5893   -0.6722    1.2316 O   0  0  0  0  0  0  0  0  0  0  0  0
    5.3138   -0.0756    1.1501 C   0  0  0  0  0  0  0  0  0  0  0  0
    4.4487   -1.0134    0.6445 O   0  0  0  0  0  0  0  0  0  0  0  0
    3.6844   -0.5914   -0.4140 C   0  0  1  0  0  0  0  0  0  0  0  0
    2.7488   -1.5481   -0.7372 O   0  0  0  0  0  0  0  0  0  0  0  0
    1.9577   -1.1397   -1.7189 O   0  0  0  0  0  0  0  0  0  0  0  0
    0.6840   -1.3376   -1.3068 N   0  0  0  0  0  3  0  0  0  0  0  0
    0.4215   -2.6680   -1.3839 O   0  0  0  0  0  0  0  0  0  0  0  0
   -0.1727   -0.6622   -2.2794 C   0  0  0  0  0  3  0  0  0  0  0  0
   -1.4748   -0.7104   -1.7655 O   0  0  0  0  0  0  0  0  0  0  0  0
   -1.5226   -0.2064   -0.4658 C   0  0  1  0  0  0  0  0  0  0  0  0
   -1.9646    1.1274   -0.5246 O   0  0  0  0  0  0  0  0  0  0  0  0
   -2.7744    0.8419    0.5670 C   0  0  1  0  0  0  0  0  0  0  0  0
   -4.0306    1.4015    0.5624 O   0  0  0  0  0  0  0  0  0  0  0  0
   -4.1356    2.2956   -0.4961 C   0  0  2  0  0  0  0  0  0  0  0  0
   -3.9212    3.5973   -0.1205 O   0  0  0  0  0  0  0  0  0  0  0  0
   -5.5025    2.0743   -1.1219 C   0  0  0  0  0  0  0  0  0  0  0  0
   -6.4847    2.7319   -0.4235 F   0  0  0  0  0  0  0  0  0  0  0  0
   -5.7260    0.5581   -1.0907 C   0  0  0  0  0  0  0  0  0  0  0  0
   -4.4467   -0.0790   -1.5192 C   0  0  0  0  0  0  0  0  0  0  0  0
   -4.6676   -0.7060   -2.7574 O   0  0  0  0  0  0  0  0  0  0  0  0
   -3.8966   -1.0880   -0.5860 C   0  0  2  0  0  0  0  0  0  0  0  0
   -4.8236   -1.7293    0.1997 O   0  0  0  0  0  0  0  0  0  0  0  0
   -4.1676   -2.8295    0.7966 C   0  0  2  0  0  0  0  0  0  0  0  0
   -3.5569   -3.7178   -0.2730 C   0  0  0  0  0  2  0  0  0  0  0  0
   -5.0418   -3.5426    1.6179 O   0  0  0  0  0  0  0  0  0  0  0  0
  1  2  1  0
  2  3  1  0
  3  4  1  0
  4  5  1  1
  4  6  1  0
  6  7  1  6
  6  8  1  0
  8  9  1  6
  8 10  1  0
 10 11  1  1
 11 12  1  0
 12 13  1  0
 13 14  1  0
 14 15  1  0
 15 16  1  0
 16 17  1  0
 17 18  1  0
 18 19  1  0
 19 20  1  0
 20 21  1  0
 21 22  1  0
 22 23  1  0
 24 23  1  1
 24 25  1  0
 25 26  1  0
 26 27  1  0
 27 28  1  0
 27 29  1  0
 29 30  1  0
 31 30  1  6
 31 32  1  0
 33 32  1  6
 33 34  1  0
 34 35  1  0
 35 36  1  1
 35 37  1  0
 37 38  1  0
 37 39  1  0
 39 40  1  0
 40 41  1  0
 40 42  1  0
 42 43  1  1
 43 44  1  0
 44 45  1  6
 44 46  1  0
 31  1  1  0
 33  1  1  0
 42  1  1  0
 14 10  1  0
 24 14  1  0
M  CHG  1  27   1
M  RAD  5  12   2  20   2  27   2  29   2  45   3
M  END
$$$$
