
     RDKit          3D

 18 20  0  0  0  0  0  0  0  0999 V2000
   -4.4581    1.8808   -0.7078 C   0  0  0  0  0  0  0  0  0  0  0  0
   -3.3321    1.0606   -0.6186 O   0  0  0  0  0  0  0  0  0  0  0  0
   -2.9973    0.9416    0.7146 C   0  0  0  0  0  0  0  0  0  0  0  0
   -1.7985    0.0826    0.9583 C   0  0  0  0  0  0  0  0  0  0  0  0
   -0.5143    0.5120    0.3263 C   0  0  0  0  0  0  0  0  0  0  0  0
   -0.5649    1.2741   -0.7940 O   0  0  0  0  0  0  0  0  0  0  0  0
    0.7512    0.3257    1.0439 C   0  0  0  0  0  0  0  0  0  0  0  0
    1.9309    0.2957    0.0774 C   0  0  1  0  0  0  0  0  0  0  0  0
    3.1649    0.0357    0.9540 C   0  0  0  0  0  0  0  0  0  0  0  0
    4.3983   -0.0142    0.0959 C   0  0  0  0  0  0  0  0  0  0  0  0
    4.5738    1.1952   -0.5795 O   0  0  0  0  0  0  0  0  0  0  0  0
    0.3789   -1.0156    1.2982 O   0  0  0  0  0  0  0  0  0  0  0  0
   -0.2620   -0.9846    0.0729 C   0  0  0  0  0  0  0  0  0  0  0  0
   -1.7245   -1.1621    0.0573 C   0  0  0  0  0  0  0  0  0  0  0  0
   -2.0980   -2.2686    0.8505 O   0  0  0  0  0  0  0  0  0  0  0  0
    0.5390   -1.1029   -1.1473 C   0  0  0  0  0  0  0  0  0  0  0  0
    0.1471   -0.3290   -2.2159 O   0  0  0  0  0  0  0  0  0  0  0  0
    1.8657   -0.7271   -0.8335 O   0  0  0  0  0  0  0  0  0  0  0  0
  1  2  1  0
  2  3  1  0
  3  4  1  0
  4  5  1  0
  5  6  1  0
  5  7  1  0
  7  8  1  0
  8  9  1  1
  9 10  1  0
 10 11  1  0
  7 12  1  0
 12 13  1  0
 13 14  1  0
 14 15  1  0
 13 16  1  0
 16 17  1  0
 16 18  1  0
 14  4  1  0
 13  5  1  0
 18  8  1  0
M  END
$$$$
