
     RDKit          3D

  6  5  0  0  0  0  0  0  0  0999 V2000
   -2.3369   -0.8519    0.2144 C   0  0  0  0  0  0  0  0  0  0  0  0
   -0.9351    0.2359    0.2428 S   0  0  0  0  0  0  0  0  0  0  0  0
   -1.2865    1.6933    0.0838 O   0  0  0  0  0  0  0  0  0  0  0  0
    0.3845   -0.2838   -0.7313 N   0  0  0  0  0  0  0  0  0  0  0  0
    1.5457   -0.3480   -0.3122 N   0  0  0  0  0  4  0  0  0  0  0  0
    2.6282   -0.4455    0.2833 N   0  0  0  0  0  2  0  0  0  0  0  0
  1  2  1  0
  2  3  2  0
  2  4  1  0
  4  5  2  0
  5  6  2  0
M  CHG  2   5   1   6  -1
M  END
$$$$
