
     RDKit          3D

 45 46  0  0  0  0  0  0  0  0999 V2000
   -2.6955    0.5867    1.3542 O   0  0  0  0  0  0  0  0  0  0  0  0
   -2.6295    1.9732    1.4919 C   0  0  0  0  0  0  0  0  0  0  0  0
   -3.8807    2.5860    0.8714 C   0  0  0  0  0  3  0  0  0  0  0  0
   -4.8717    2.7559    1.9398 N   0  0  0  0  0  0  0  0  0  0  0  0
   -6.1856    2.6268    1.3334 C   0  0  2  0  0  0  0  0  0  0  0  0
   -7.1986    2.9843    2.3957 C   0  0  0  0  0  0  0  0  0  0  0  0
   -7.0874    2.1242    3.4906 O   0  0  0  0  0  0  0  0  0  0  0  0
   -6.4037    1.2330    0.8005 C   0  0  1  0  0  0  0  0  0  0  0  0
   -6.2155    1.1422   -0.5573 O   0  0  0  0  0  0  0  0  0  0  0  0
   -5.6192    0.2145    1.5657 C   0  0  2  0  0  0  0  0  0  0  0  0
   -4.9687    0.6844    2.6790 O   0  0  0  0  0  0  0  0  0  0  0  0
   -4.6629   -0.5902    0.7331 C   0  0  0  0  0  3  0  0  0  0  0  0
   -3.4686    0.2464    0.2524 C   0  0  2  0  0  0  0  0  0  0  0  0
   -2.6515   -0.6386   -0.6559 C   0  0  2  0  0  0  0  0  0  0  0  0
   -2.2930   -1.7693    0.0592 O   0  0  0  0  0  0  0  0  0  0  0  0
   -1.5132    0.1158   -1.2157 C   0  0  0  0  0  0  0  0  0  0  0  0
   -0.5298    0.6794   -0.2481 C   0  0  0  0  0  0  0  0  0  0  0  0
   -0.2843   -0.2276    0.7894 O   0  0  0  0  0  0  0  0  0  0  0  0
    0.7707    1.0887   -0.9173 C   0  0  0  0  0  0  0  0  0  0  0  0
    1.7561   -0.0740   -0.7000 C   0  0  2  0  0  0  0  0  0  0  0  0
    1.0051   -1.3191   -1.0947 C   0  0  2  0  0  0  0  0  0  0  0  0
    1.0935   -2.4414   -0.1208 C   0  0  0  0  0  2  0  0  0  0  0  0
    1.2268   -1.7777   -2.8060 S   0  0  0  0  0  0  0  0  0  0  0  0
    0.6107   -3.4936   -3.0178 C   0  0  0  0  0  3  0  0  0  0  0  0
   -0.2858   -3.5229   -4.2434 C   0  0  0  0  0  0  0  0  0  0  0  0
   -0.7069   -2.2227   -4.5148 O   0  0  0  0  0  0  0  0  0  0  0  0
   -1.5074   -1.7603   -3.4617 C   0  0  2  0  0  0  0  0  0  0  0  0
   -2.4999   -2.7193   -3.1762 O   0  0  0  0  0  0  0  0  0  0  0  0
   -2.1128   -0.5976   -3.8956 O   0  0  0  0  0  0  0  0  0  0  0  0
   -1.2868    0.4100   -3.5997 O   0  0  0  0  0  0  0  0  0  0  0  0
   -1.7719    0.9479   -2.4110 C   0  0  0  0  0  3  0  0  0  0  0  0
    2.0522   -0.0374    0.6541 O   0  0  0  0  0  0  0  0  0  0  0  0
    2.9401   -1.0205    1.0585 C   0  0  0  0  0  3  0  0  0  0  0  0
    4.3303   -0.5561    0.6197 C   0  0  0  0  0  0  0  0  0  0  0  0
    4.8583    0.2565    1.8078 C   0  0  2  0  0  0  0  0  0  0  0  0
    6.2340    0.7343    1.4059 C   0  0  0  0  0  3  0  0  0  0  0  0
    6.0207    1.7708   -0.0810 S   0  0  0  0  0  0  0  0  0  0  0  0
    7.5282    2.3640   -0.6097 O   0  0  0  0  0  0  0  0  0  0  0  0
    7.4225    2.6265   -1.9719 C   0  0  0  0  0  3  0  0  0  0  0  0
    7.3848    4.0097   -2.1496 O   0  0  0  0  0  0  0  0  0  0  0  0
    4.9034   -0.6534    2.9320 N   0  0  0  0  0  0  0  0  0  0  0  0
    5.8206   -1.7504    2.7116 C   0  0  2  0  0  0  0  0  0  0  0  0
    5.3307   -2.5550    1.5312 C   0  0  0  0  0  2  0  0  0  0  0  0
    5.8177   -2.6057    3.9620 C   0  0  0  0  0  0  0  0  0  0  0  0
    6.2246   -1.8283    5.0092 F   0  0  0  0  0  0  0  0  0  0  0  0
  1  2  1  0
  2  3  1  0
  3  4  1  0
  4  5  1  0
  5  6  1  1
  6  7  1  0
  5  8  1  0
  8  9  1  6
  8 10  1  0
 10 11  1  1
 10 12  1  0
 13 12  1  1
 13 14  1  0
 14 15  1  1
 14 16  1  0
 16 17  1  0
 17 18  1  0
 17 19  1  0
 19 20  1  0
 20 21  1  0
 21 22  1  1
 21 23  1  0
 23 24  1  0
 24 25  1  0
 25 26  1  0
 26 27  1  0
 27 28  1  6
 27 29  1  0
 29 30  1  0
 30 31  1  0
 20 32  1  1
 32 33  1  0
 33 34  1  0
 35 34  1  6
 35 36  1  0
 36 37  1  0
 37 38  1  0
 38 39  1  0
 39 40  1  0
 35 41  1  0
 41 42  1  0
 42 43  1  6
 42 44  1  0
 44 45  1  0
 13  1  1  0
 31 16  1  0
M  RAD  8   3   2  12   2  22   3  24   2  31   2  33   2  36   2  39   2
M  RAD  1  43   3
M  END
$$$$
