
     RDKit          3D

 23 24  0  0  0  0  0  0  0  0999 V2000
    2.0402    2.2120   -1.3980 C   0  0  0  0  0  0  0  0  0  0  0  0
    2.6420    0.9883   -0.7719 C   0  0  1  0  0  0  0  0  0  0  0  0
    3.4855    1.2994    0.4413 C   0  0  0  0  0  0  0  0  0  0  0  0
    4.4140    0.1319    0.6716 C   0  0  2  0  0  0  0  0  0  0  0  0
    5.6931    0.3778    0.1967 O   0  0  0  0  0  0  0  0  0  0  0  0
    3.7913   -1.0996    0.0504 C   0  0  2  0  0  0  0  0  0  0  0  0
    3.9241   -0.9986   -1.3434 O   0  0  0  0  0  0  0  0  0  0  0  0
    2.3212   -1.0838    0.4504 C   0  0  1  0  0  0  0  0  0  0  0  0
    2.2296   -0.5603    1.7470 O   0  0  0  0  0  0  0  0  0  0  0  0
    1.6330   -0.0944   -0.4830 C   0  0  1  0  0  0  0  0  0  0  0  0
    0.4929    0.4720    0.2336 N   0  0  0  0  0  0  0  0  0  0  0  0
   -0.6270   -0.4599    0.1897 C   0  0  1  0  0  0  0  0  0  0  0  0
   -1.4402   -0.4888    1.4245 C   0  0  0  0  0  0  0  0  0  0  0  0
   -2.6190    0.4214    1.4743 C   0  0  2  0  0  0  0  0  0  0  0  0
   -2.8691    0.8710    2.7794 O   0  0  0  0  0  0  0  0  0  0  0  0
   -3.8718   -0.3434    1.0584 C   0  0  1  0  0  0  0  0  0  0  0  0
   -4.9832    0.4994    1.1049 O   0  0  0  0  0  0  0  0  0  0  0  0
   -3.5970   -0.8412   -0.3469 C   0  0  1  0  0  0  0  0  0  0  0  0
   -4.7475   -1.1500   -1.0449 O   0  0  0  0  0  0  0  0  0  0  0  0
   -2.7431    0.1995   -1.0170 C   0  0  2  0  0  0  0  0  0  0  0  0
   -3.1837    0.4789   -2.3113 O   0  0  0  0  0  0  0  0  0  0  0  0
   -1.3417   -0.3001   -1.0965 C   0  0  1  0  0  0  0  0  0  0  0  0
   -0.6436    0.4800   -2.0092 O   0  0  0  0  0  0  0  0  0  0  0  0
  2  1  1  1
  2  3  1  0
  3  4  1  0
  4  5  1  6
  4  6  1  0
  6  7  1  6
  6  8  1  0
  8  9  1  1
  8 10  1  0
 10 11  1  1
 12 11  1  1
 12 13  1  0
 13 14  1  0
 14 15  1  1
 14 16  1  0
 16 17  1  6
 16 18  1  0
 18 19  1  6
 18 20  1  0
 20 21  1  6
 20 22  1  0
 22 23  1  6
 10  2  1  0
 22 12  1  0
M  END
$$$$
