
     RDKit          3D

 23 24  0  0  0  0  0  0  0  0999 V2000
   -2.5306    0.3357   -3.6958 O   0  0  0  0  0  0  0  0  0  0  0  0
   -3.2077   -0.4488   -2.9896 C   0  0  0  0  0  0  0  0  0  0  0  0
   -4.4383   -0.8562   -3.5620 O   0  0  0  0  0  0  0  0  0  0  0  0
   -2.8482   -0.9610   -1.6629 C   0  0  0  0  0  0  0  0  0  0  0  0
   -2.4997   -0.0002   -0.6609 C   0  0  0  0  0  0  0  0  0  0  0  0
   -1.3423    0.0745    0.0277 C   0  0  0  0  0  0  0  0  0  0  0  0
   -0.3497   -0.9362   -0.2983 C   0  0  0  0  0  0  0  0  0  0  0  0
    0.0668   -1.2741   -1.9956 Cl  0  0  0  0  0  0  0  0  0  0  0  0
    0.2809   -1.6454    0.5911 C   0  0  0  0  0  0  0  0  0  0  0  0
    1.4574   -2.0981    0.3110 C   0  0  0  0  0  0  0  0  0  0  0  0
    2.3405   -1.4340   -0.6350 C   0  0  0  0  0  0  0  0  0  0  0  0
    3.2222   -0.5178   -0.1935 C   0  0  0  0  0  0  0  0  0  0  0  0
    4.2698    0.4287   -0.4622 C   0  0  0  0  0  0  0  0  0  0  0  0
    4.3262    0.7423    0.8179 C   0  0  0  0  0  0  0  0  0  0  0  0
    5.2476    1.7596    1.4666 C   0  0  0  0  0  0  0  0  0  0  0  0
    3.3038   -0.1893    1.2524 C   0  0  0  0  0  0  0  0  0  0  0  0
    2.0219    0.2816    1.7534 C   0  0  0  0  0  0  0  0  0  0  0  0
    1.2466    1.0687    1.0152 C   0  0  0  0  0  0  0  0  0  0  0  0
   -0.0316    1.5575    1.4605 C   0  0  0  0  0  0  0  0  0  0  0  0
   -1.1948    1.1239    1.0309 C   0  0  0  0  0  0  0  0  0  0  0  0
   -2.4862    1.6891    1.5699 C   0  0  0  0  0  0  0  0  0  0  0  0
   -3.2902    0.5758    2.1989 C   0  0  0  0  0  0  0  0  0  0  0  0
   -3.5643    0.7239    3.4909 C   0  0  0  0  0  0  0  0  0  0  0  0
  1  2  2  0
  2  3  1  0
  2  4  1  0
  4  5  1  0
  5  6  2  3
  6  7  1  0
  7  8  1  0
  7  9  2  0
  9 10  2  0
 10 11  1  0
 11 12  2  3
 12 13  1  0
 13 14  2  0
 14 15  1  0
 14 16  1  0
 16 17  1  0
 17 18  2  3
 18 19  1  0
 19 20  2  3
 20 21  1  0
 21 22  1  0
 22 23  2  0
 20  6  1  0
 16 12  1  0
M  END
$$$$
