
     RDKit          3D

 26 26  0  0  0  0  0  0  0  0999 V2000
    2.9522   -0.0329   -1.7195 C   0  0  0  0  0  0  0  0  0  0  0  0
    3.3367   -1.3565   -1.1198 C   0  0  1  0  0  0  0  0  0  0  0  0
    4.7624   -1.7398   -1.4459 C   0  0  0  0  0  0  0  0  0  0  0  0
    5.7441   -0.6977   -1.0155 C   0  0  1  0  0  0  0  0  0  0  0  0
    6.2327   -0.0549   -2.1464 O   0  0  0  0  0  0  0  0  0  0  0  0
    5.0865    0.3041   -0.1236 C   0  0  2  0  0  0  0  0  0  0  0  0
    6.0209    1.1183    0.5216 O   0  0  0  0  0  0  0  0  0  0  0  0
    4.2172   -0.3187    0.9394 C   0  0  1  0  0  0  0  0  0  0  0  0
    3.6458    0.7259    1.6569 O   0  0  0  0  0  0  0  0  0  0  0  0
    3.2084   -1.2734    0.3793 C   0  0  1  0  0  0  0  0  0  0  0  0
    1.8642   -1.0638    0.8179 N   0  0  0  0  0  0  0  0  0  0  0  0
    1.3123    0.1905    0.3538 C   0  0  0  0  0  3  0  0  0  0  0  0
    0.1256    0.6146    1.1875 C   0  0  0  0  0  0  0  0  0  0  0  0
   -1.0468    0.0903    0.6489 O   0  0  0  0  0  0  0  0  0  0  0  0
   -1.2362    0.5318   -0.6546 C   0  0  0  0  0  0  0  0  0  0  0  0
   -2.5206   -0.0732   -1.1839 C   0  0  0  0  0  3  0  0  0  0  0  0
   -3.7074    0.4198   -0.3617 C   0  0  0  0  0  0  0  0  0  0  0  0
   -3.8244    1.7902   -0.4765 O   0  0  0  0  0  0  0  0  0  0  0  0
   -4.8994    2.2479    0.2601 C   0  0  2  0  0  0  0  0  0  0  0  0
   -6.0817    1.6695   -0.1821 O   0  0  0  0  0  0  0  0  0  0  0  0
   -4.9580    3.7698    0.0645 C   0  0  0  0  0  3  0  0  0  0  0  0
   -6.0459    4.2920    0.7852 O   0  0  0  0  0  0  0  0  0  0  0  0
   -2.4369   -1.5823   -1.0448 C   0  0  0  0  0  3  0  0  0  0  0  0
   -3.7501   -2.0986   -0.5047 C   0  0  0  0  0  3  0  0  0  0  0  0
   -3.5113   -3.3027    0.1364 O   0  0  0  0  0  0  0  0  0  0  0  0
   -4.4904   -4.1703   -0.1136 O   0  0  0  0  0  0  0  0  0  0  0  0
  2  1  1  6
  2  3  1  0
  3  4  1  0
  4  5  1  6
  4  6  1  0
  6  7  1  1
  6  8  1  0
  8  9  1  6
  8 10  1  0
 10 11  1  6
 11 12  1  0
 12 13  1  0
 13 14  1  0
 14 15  1  0
 15 16  1  0
 16 17  1  0
 17 18  1  0
 18 19  1  0
 19 20  1  6
 19 21  1  0
 21 22  1  0
 16 23  1  0
 23 24  1  0
 24 25  1  0
 25 26  1  0
 10  2  1  0
M  RAD  5  12   2  16   2  21   2  23   2  24   2
M  END
$$$$
