
     RDKit          3D

 15 15  0  0  0  0  0  0  0  0999 V2000
   -1.4896   -0.3501    1.1329 O   0  0  0  0  0  0  0  0  0  0  0  0
   -1.7200   -1.0359    0.1120 C   0  0  0  0  0  0  0  0  0  0  0  0
   -0.6944   -1.9276   -0.2913 N   0  0  0  0  0  0  0  0  0  0  0  0
    0.5210   -2.0155    0.4434 C   0  0  0  0  0  0  0  0  0  0  0  0
    1.4499   -0.8895    0.2151 C   0  0  0  0  0  0  0  0  0  0  0  0
    2.6910   -0.8763    0.7956 C   0  0  0  0  0  0  0  0  0  0  0  0
    3.5776    0.1599    0.6017 C   0  0  0  0  0  0  0  0  0  0  0  0
    3.2217    1.2243   -0.1980 C   0  0  0  0  0  0  0  0  0  0  0  0
    4.0762    2.2516   -0.4048 F   0  0  0  0  0  0  0  0  0  0  0  0
    1.9674    1.2001   -0.7782 C   0  0  0  0  0  0  0  0  0  0  0  0
    1.0853    0.1652   -0.5823 C   0  0  0  0  0  0  0  0  0  0  0  0
   -2.9600   -0.9554   -0.6548 C   0  0  0  0  0  0  0  0  0  0  0  0
   -3.9332   -0.1345   -0.3096 C   0  0  0  0  0  0  0  0  0  0  0  0
   -3.8218    0.7508    0.8761 C   0  0  0  0  0  0  0  0  0  0  0  0
   -3.9711    2.4330    0.2506 Cl  0  0  0  0  0  0  0  0  0  0  0  0
  1  2  2  0
  2  3  1  0
  3  4  1  0
  4  5  1  0
  5  6  2  0
  6  7  1  0
  7  8  2  0
  8  9  1  0
  8 10  1  0
 10 11  2  0
  2 12  1  0
 12 13  2  3
 13 14  1  0
 14 15  1  0
 11  5  1  0
M  END
$$$$
