
     RDKit          3D

 30 31  0  0  0  0  0  0  0  0999 V2000
    8.3772    1.5002    0.5707 C   0  0  0  0  0  0  0  0  0  0  0  0
    8.1449    0.0624    0.1988 C   0  0  0  0  0  0  0  0  0  0  0  0
    8.6426   -0.8895    1.2413 C   0  0  0  0  0  0  0  0  0  0  0  0
    6.7023   -0.1863   -0.1922 C   0  0  0  0  0  0  0  0  0  0  0  0
    5.8505    0.1814    1.0246 C   0  0  0  0  0  0  0  0  0  0  0  0
    4.3834   -0.0552    0.6729 C   0  0  0  0  0  0  0  0  0  0  0  0
    4.0631    0.8310   -0.5056 C   0  0  1  0  0  0  0  0  0  0  0  0
    4.9084    0.5310   -1.7036 C   0  0  0  0  0  0  0  0  0  0  0  0
    2.6061    0.6453   -0.8679 C   0  0  0  0  0  3  0  0  0  0  0  0
    2.3831   -0.8134   -1.2263 C   0  0  0  0  0  0  0  0  0  0  0  0
    0.9426   -1.0223   -1.5898 C   0  0  0  0  0  0  0  0  0  0  0  0
    0.0081   -0.6669   -0.4475 C   0  0  2  0  0  0  0  0  0  0  0  0
    0.2585   -1.4800    0.7617 C   0  0  0  0  0  0  0  0  0  0  0  0
   -1.4103   -0.5777   -0.8878 C   0  0  0  0  0  3  0  0  0  0  0  0
   -1.4674    0.1177   -2.2251 C   0  0  0  0  0  0  0  0  0  0  0  0
   -2.0901    1.4821   -2.1541 C   0  0  0  0  0  0  0  0  0  0  0  0
   -1.5367    2.4134   -0.7235 S   0  0  0  0  0  0  0  0  0  0  0  0
   -3.5933    1.3004   -2.1953 C   0  0  0  0  0  0  0  0  0  0  0  0
   -4.2560    1.9373   -0.9812 C   0  0  0  0  0  0  0  0  0  0  0  0
   -5.6567    1.3776   -0.9011 C   0  0  0  0  0  0  0  0  0  0  0  0
   -6.5686    2.1950   -0.0354 C   0  0  0  0  0  0  0  0  0  0  0  0
   -5.6810    0.0302   -0.6228 O   0  0  0  0  0  0  0  0  0  0  0  0
   -6.0087   -0.2576    0.6942 C   0  0  0  0  0  0  0  0  0  0  0  0
   -4.7624   -0.6918    1.4220 C   0  0  0  0  0  3  0  0  0  0  0  0
   -4.5066   -2.1721    1.2884 C   0  0  0  0  0  0  0  0  0  0  0  0
   -3.1158   -2.5070    1.5017 N   0  0  0  0  0  0  0  0  0  0  0  0
   -2.2182   -1.4410    1.1839 C   0  0  0  0  0  0  0  0  0  0  0  0
   -0.8865   -1.6630    1.6791 C   0  0  0  0  0  0  0  0  0  0  0  0
   -1.6630   -0.5694    2.2267 C   0  0  0  0  0  0  0  0  0  0  0  0
   -1.8494    0.3882    2.9613 O   0  0  0  0  0  0  0  0  0  0  0  0
  1  2  1  0
  2  3  1  0
  2  4  1  0
  4  5  1  0
  5  6  1  0
  6  7  1  0
  7  8  1  6
  7  9  1  0
  9 10  1  0
 10 11  1  0
 12 11  1  6
 12 13  1  0
 12 14  1  0
 14 15  1  0
 15 16  1  0
 16 17  1  0
 16 18  1  0
 18 19  1  0
 19 20  1  0
 20 21  1  0
 20 22  1  0
 22 23  1  0
 23 24  1  0
 24 25  1  0
 25 26  1  0
 26 27  1  0
 27 28  1  0
 28 29  1  0
 29 30  2  0
 28 13  1  0
 29 27  1  0
M  RAD  3   9   2  14   2  24   2
M  END
$$$$
