
     RDKit          3D

 25 26  0  0  0  0  0  0  0  0999 V2000
   -1.1868    0.4091    0.4604 C   0  0  0  0  0  0  0  0  0  0  0  0
   -2.5618   -0.2043    0.3219 C   0  0  1  0  0  0  0  0  0  0  0  0
   -3.5841    0.4434    1.1879 C   0  0  0  0  0  0  0  0  0  0  0  0
   -3.9714    1.8077    0.6619 C   0  0  2  0  0  0  0  0  0  0  0  0
   -4.9394    2.3665    1.5034 O   0  0  0  0  0  0  0  0  0  0  0  0
   -4.5453    1.5721   -0.7414 C   0  0  2  0  0  0  0  0  0  0  0  0
   -5.4546    0.5194   -0.6878 O   0  0  0  0  0  0  0  0  0  0  0  0
   -3.3764    1.0964   -1.5887 C   0  0  1  0  0  0  0  0  0  0  0  0
   -2.2668    1.9081   -1.4136 O   0  0  0  0  0  0  0  0  0  0  0  0
   -3.0089   -0.3073   -1.0997 C   0  0  1  0  0  0  0  0  0  0  0  0
   -2.1062   -0.8767   -1.9992 N   0  0  0  0  0  0  0  0  0  0  0  0
   -0.7802   -1.1095   -1.6062 C   0  0  0  0  0  3  0  0  0  0  0  0
   -0.5854   -1.8232   -0.3034 C   0  0  0  0  0  0  0  0  0  0  0  0
   -0.2456   -0.7722    0.7349 C   0  0  0  0  0  0  0  0  0  0  0  0
   -0.4296   -1.2223    2.0295 O   0  0  0  0  0  0  0  0  0  0  0  0
    1.0687   -0.3936    0.5379 O   0  0  0  0  0  0  0  0  0  0  0  0
    1.8619   -1.5173    0.7729 C   0  0  1  0  0  0  0  0  0  0  0  0
    1.5547   -2.5626   -0.0804 O   0  0  0  0  0  0  0  0  0  0  0  0
    3.3030   -1.0741    0.4990 C   0  0  2  0  0  0  0  0  0  0  0  0
    3.5720   -0.0348    1.3846 O   0  0  0  0  0  0  0  0  0  0  0  0
    3.3196   -0.5584   -0.9225 C   0  0  0  0  0  3  0  0  0  0  0  0
    4.9797   -0.0153   -1.3278 S   0  0  0  0  0  0  0  0  0  0  0  0
    6.0162   -0.2500    0.0127 O   0  0  0  0  0  0  0  0  0  0  0  0
    5.9917    0.8368    0.7541 O   0  0  0  0  0  0  0  0  0  0  0  0
    7.3750    1.7621    0.4132 S   0  0  0  0  0  0  0  0  0  0  0  0
  2  1  1  6
  2  3  1  0
  3  4  1  0
  4  5  1  1
  4  6  1  0
  6  7  1  1
  6  8  1  0
  8  9  1  1
  8 10  1  0
 10 11  1  6
 11 12  1  0
 12 13  1  0
 13 14  1  0
 14 15  1  0
 14 16  1  0
 16 17  1  0
 17 18  1  6
 17 19  1  0
 19 20  1  1
 19 21  1  0
 21 22  1  0
 22 23  1  0
 23 24  1  0
 24 25  1  0
 14  1  1  0
 10  2  1  0
M  RAD  2  12   2  21   2
M  END
$$$$
