
     RDKit          3D

 33 32  0  0  0  0  0  0  0  0999 V2000
   -5.7252   -3.0150   -0.6468 C   0  0  0  0  0  0  0  0  0  0  0  0
   -4.6775   -2.0580   -1.2229 C   0  0  0  0  0  0  0  0  0  0  0  0
   -5.3349   -0.6996   -1.2981 C   0  0  2  0  0  0  0  0  0  0  0  0
   -6.5251   -0.8002   -2.1935 C   0  0  0  0  0  0  0  0  0  0  0  0
   -4.2792    0.2881   -1.7740 C   0  0  2  0  0  0  0  0  0  0  0  0
   -3.2233    0.2361   -0.7753 N   0  0  0  0  0  0  0  0  0  0  0  0
   -3.2869    0.7798    0.5160 C   0  0  0  0  0  0  0  0  0  0  0  0
   -4.3809    1.3881    0.8182 O   0  0  0  0  0  0  0  0  0  0  0  0
   -2.2480    0.7161    1.5489 C   0  0  2  0  0  0  0  0  0  0  0  0
   -2.2269    1.8929    2.4129 C   0  0  0  0  0  0  0  0  0  0  0  0
   -1.9064    3.1962    1.9027 C   0  0  0  0  0  0  0  0  0  0  0  0
   -2.5783    3.8679    0.8146 C   0  0  0  0  0  0  0  0  0  0  0  0
   -2.5127    3.3012   -0.4965 N   0  0  0  0  0  0  0  0  0  0  0  0
   -0.9253    0.2684    1.0305 C   0  0  0  0  0  0  0  0  0  0  0  0
   -0.7751    0.0975   -0.2380 N   0  0  0  0  0  0  0  0  0  0  0  0
    0.1765    0.0249    1.8547 N   0  0  0  0  0  0  0  0  0  0  0  0
    1.5006    0.1265    1.4551 N   0  0  0  0  0  0  0  0  0  0  0  0
    1.6638    1.4041    0.9994 O   0  0  0  0  0  0  0  0  0  0  0  0
    1.8895   -0.8571    0.4614 C   0  0  2  0  0  0  0  0  0  0  0  0
    1.5542   -2.2429    0.8653 C   0  0  0  0  0  0  0  0  0  0  0  0
    2.1389   -2.7718    2.1069 C   0  0  0  0  0  0  0  0  0  0  0  0
    3.6098   -2.9013    2.1993 C   0  0  0  0  0  0  0  0  0  0  0  0
    4.3373   -4.1260    0.8926 Br  0  0  0  0  0  0  0  0  0  0  0  0
    3.2072   -0.6008    0.0123 N   0  0  0  0  0  0  0  0  0  0  0  0
    3.3668    0.8110   -0.2695 C   0  0  0  0  0  0  0  0  0  0  0  0
    3.6327   -1.3053   -1.1679 C   0  0  0  0  0  0  0  0  0  0  0  0
    5.0597   -0.7989   -1.4485 C   0  0  0  0  0  0  0  0  0  0  0  0
    5.8894   -1.1234   -0.2412 C   0  0  0  0  0  0  0  0  0  0  0  0
    7.2957   -0.6514   -0.4606 C   0  0  0  0  0  0  0  0  0  0  0  0
    7.2836    0.7836   -0.6725 N   0  0  0  0  0  0  0  0  0  0  0  0
    9.0746    1.4039   -0.9525 Br  0  0  0  0  0  0  0  0  0  0  0  0
   -4.8142    1.6228   -1.8701 N   0  0  0  0  0  0  0  0  0  0  0  0
   -6.2603    1.7425   -3.0525 Br  0  0  0  0  0  0  0  0  0  0  0  0
  1  2  1  0
  2  3  1  0
  3  4  1  6
  3  5  1  0
  5  6  1  1
  6  7  1  0
  7  8  2  0
  7  9  1  0
  9 10  1  6
 10 11  1  0
 11 12  1  0
 12 13  1  0
  9 14  1  0
 14 15  2  0
 14 16  1  0
 16 17  1  0
 17 18  1  0
 17 19  1  0
 19 20  1  1
 20 21  1  0
 21 22  1  0
 22 23  1  0
 19 24  1  0
 24 25  1  0
 24 26  1  0
 26 27  1  0
 27 28  1  0
 28 29  1  0
 29 30  1  0
 30 31  1  0
  5 32  1  0
 32 33  1  0
M  END
$$$$
