
     RDKit          3D

 20 22  0  0  0  0  0  0  0  0999 V2000
    1.2097   -3.1460   -0.0406 C   0  0  0  0  0  0  0  0  0  0  0  0
    2.4427   -3.5593   -0.4984 O   0  0  0  0  0  0  0  0  0  0  0  0
    3.4292   -2.6111   -0.7441 N   0  0  0  0  0  0  0  0  0  0  0  0
    3.3755   -1.6466    0.2427 N   0  0  0  0  0  0  0  0  0  0  0  0
    3.5368   -0.0528   -0.4807 S   0  0  0  0  0  0  0  0  0  0  0  0
    2.0983    0.9589   -0.2245 C   0  0  0  0  0  0  0  0  0  0  0  0
    2.2183    2.2126    0.1113 C   0  0  0  0  0  0  0  0  0  0  0  0
    1.0244    3.0186    0.3149 C   0  0  0  0  0  0  0  0  0  0  0  0
    0.0485    2.9071   -0.5490 C   0  0  0  0  0  0  0  0  0  0  0  0
   -1.1179    3.6976   -0.3459 N   0  0  0  0  0  0  0  0  0  0  0  0
   -2.0584    3.2126    0.5503 N   0  0  0  0  0  0  0  0  0  0  0  0
   -3.1264    2.4752   -0.0675 C   0  0  0  0  0  0  0  0  0  0  0  0
   -2.7418    1.0975   -0.5052 C   0  0  0  0  0  0  0  0  0  0  0  0
   -1.5499    0.6992    0.1150 N   0  0  0  0  0  3  0  0  0  0  0  0
   -2.9061    0.1077    0.3523 C   0  0  0  0  0  0  0  0  0  0  0  0
   -2.6913   -0.7847    1.2187 C   0  0  0  0  0  0  0  0  0  0  0  0
   -1.2107   -1.5587    0.5166 S   0  0  0  0  0  0  0  0  0  0  0  0
   -1.1659   -3.1226    0.1043 C   0  0  0  0  0  0  0  0  0  0  0  0
    0.0716   -3.6352   -0.4484 C   0  0  0  0  0  0  0  0  0  0  0  0
   -0.8866   -0.2698   -0.6019 O   0  0  0  0  0  0  0  0  0  0  0  0
  1  2  1  0
  2  3  1  0
  3  4  1  0
  4  5  1  0
  5  6  1  0
  6  7  2  3
  7  8  1  0
  8  9  2  3
  9 10  1  0
 10 11  1  0
 11 12  1  0
 12 13  1  0
 13 14  1  0
 14 15  1  0
 15 16  2  0
 16 17  1  0
 17 18  2  3
 18 19  1  0
 14 20  1  0
  1 19  2  3
 15 13  1  0
 20 17  1  0
M  CHG  1  14   1
M  RAD  1  14   2
M  END
$$$$
