
     RDKit          3D

 30 30  0  0  0  0  0  0  0  0999 V2000
    8.7266   -0.4586    0.2804 C   0  0  0  0  0  0  0  0  0  0  0  0
    7.6158   -1.4620    0.0584 C   0  0  0  0  0  0  0  0  0  0  0  0
    8.2126   -2.8328   -0.1350 C   0  0  0  0  0  0  0  0  0  0  0  0
    6.7896   -1.0229   -1.1321 C   0  0  0  0  0  0  0  0  0  0  0  0
    5.6825   -2.0050   -1.3690 C   0  0  0  0  0  0  0  0  0  0  0  0
    4.7587   -2.1195   -0.1730 C   0  0  0  0  0  0  0  0  0  0  0  0
    4.1110   -0.8133    0.1669 C   0  0  1  0  0  0  0  0  0  0  0  0
    5.1154    0.2659    0.5060 C   0  0  0  0  0  0  0  0  0  0  0  0
    3.2096   -0.3279   -0.9519 C   0  0  0  0  0  3  0  0  0  0  0  0
    2.5892    0.9917   -0.5443 C   0  0  0  0  0  0  0  0  0  0  0  0
    1.7893    0.7800    0.7101 C   0  0  0  0  0  0  0  0  0  0  0  0
    1.1472    2.0717    1.1602 C   0  0  1  0  0  0  0  0  0  0  0  0
    2.2653    3.0588    1.4186 C   0  0  0  0  0  0  0  0  0  0  0  0
    0.2710    2.6236    0.0403 C   0  0  0  0  0  3  0  0  0  0  0  0
   -0.8143    1.6340   -0.3160 C   0  0  0  0  0  0  0  0  0  0  0  0
   -1.6490    1.3912    0.8955 C   0  0  0  0  0  0  0  0  0  0  0  0
   -2.3173    2.6099    1.4439 C   0  0  0  0  0  0  0  0  0  0  0  0
   -2.6818    0.3113    0.7142 C   0  0  0  0  0  0  0  0  0  0  0  0
   -3.4347    0.2031    2.0456 C   0  0  0  0  0  0  0  0  0  0  0  0
   -4.0767   -1.1477    2.2091 C   0  0  0  0  0  3  0  0  0  0  0  0
   -3.5157   -2.0814    1.3709 O   0  0  0  0  0  0  0  0  0  0  0  0
   -5.5555   -0.9815    1.9104 C   0  0  0  0  0  0  0  0  0  0  0  0
   -5.6672   -0.5876    0.4521 C   0  0  0  0  0  0  0  0  0  0  0  0
   -5.3067   -1.7884   -0.3771 C   0  0  0  0  0  0  0  0  0  0  0  0
   -6.3491   -2.1702   -1.1870 O   0  0  0  0  0  0  0  0  0  0  0  0
   -4.1742   -1.4864   -1.1244 O   0  0  0  0  0  0  0  0  0  0  0  0
   -4.1488   -0.1592   -1.2918 O   0  0  0  0  0  0  0  0  0  0  0  0
   -3.7101    0.6984   -0.2972 C   0  0  0  0  0  0  0  0  0  0  0  0
   -4.1852    1.8458   -0.2314 N   0  0  0  0  0  4  0  0  0  0  0  0
   -4.6976    2.9588   -0.0548 N   0  0  0  0  0  2  0  0  0  0  0  0
  1  2  1  0
  2  3  1  0
  2  4  1  0
  4  5  1  0
  5  6  1  0
  6  7  1  0
  7  8  1  6
  7  9  1  0
  9 10  1  0
 10 11  1  0
 11 12  1  0
 12 13  1  6
 12 14  1  0
 14 15  1  0
 15 16  1  0
 16 17  1  0
 16 18  1  0
 18 19  1  0
 19 20  1  0
 20 21  1  0
 20 22  1  0
 22 23  1  0
 23 24  1  0
 24 25  1  0
 24 26  1  0
 26 27  1  0
 27 28  1  0
 28 29  2  0
 29 30  2  0
 28 18  1  0
M  CHG  2  29   1  30  -1
M  RAD  3   9   2  14   2  20   2
M  END
$$$$
