
     RDKit          3D

 11 11  0  0  0  0  0  0  0  0999 V2000
    2.0662    1.5039   -0.9797 O   0  0  0  0  0  0  0  0  0  0  0  0
    2.8786    1.0372   -0.1653 C   0  0  0  0  0  0  0  0  0  0  0  0
    2.9321   -0.2934    0.2287 O   0  0  0  0  0  0  0  0  0  0  0  0
    1.9902   -1.1808   -0.3415 C   0  0  0  0  0  0  0  0  0  0  0  0
    0.5970   -0.7184   -0.0003 C   0  0  0  0  0  0  0  0  0  0  0  0
   -0.3712   -1.6920   -0.6273 C   0  0  0  0  0  0  0  0  0  0  0  0
   -1.7385   -1.2495   -0.3001 C   0  0  0  0  0  0  0  0  0  0  0  0
   -1.9014   -0.1693    0.4244 C   0  0  0  0  0  0  0  0  0  0  0  0
   -1.0662    0.8309    1.0723 C   0  0  0  0  0  3  0  0  0  0  0  0
   -2.3297    1.4105    1.4885 C   0  0  0  0  0  0  0  0  0  0  0  0
   -3.0570    0.5211    0.9120 C   0  0  0  0  0  0  0  0  0  0  0  0
  1  2  2  0
  2  3  1  0
  3  4  1  0
  4  5  1  0
  5  6  1  0
  6  7  1  0
  7  8  2  3
  8  9  1  0
  9 10  1  0
 10 11  2  0
 11  8  1  0
M  RAD  1   9   2
M  END
$$$$
