
     RDKit          3D

 37 37  0  0  0  0  0  0  0  0999 V2000
   11.0280   -1.4483   -1.2370 C   0  0  0  0  0  0  0  0  0  0  0  0
   11.3483   -0.3157   -0.2967 C   0  0  0  0  0  0  0  0  0  0  0  0
   12.5110   -0.6198    0.6111 C   0  0  0  0  0  0  0  0  0  0  0  0
   10.1550    0.2177    0.4266 C   0  0  0  0  0  0  0  0  0  0  0  0
    9.4561   -0.8140    1.2783 C   0  0  0  0  0  0  0  0  0  0  0  0
    8.2741   -0.1186    1.9416 C   0  0  0  0  0  0  0  0  0  0  0  0
    7.3825    0.3915    0.8289 C   0  0  1  0  0  0  0  0  0  0  0  0
    6.9489   -0.8142    0.0237 C   0  0  0  0  0  0  0  0  0  0  0  0
    6.1325    1.0478    1.3748 C   0  0  0  0  0  3  0  0  0  0  0  0
    5.3080    1.5237    0.2016 C   0  0  0  0  0  0  0  0  0  0  0  0
    4.9563    0.3237   -0.6510 C   0  0  0  0  0  0  0  0  0  0  0  0
    4.1307    0.7048   -1.8497 C   0  0  2  0  0  0  0  0  0  0  0  0
    4.8556    1.6840   -2.7497 C   0  0  0  0  0  0  0  0  0  0  0  0
    2.7978    1.3028   -1.4561 C   0  0  0  0  0  3  0  0  0  0  0  0
    1.9992    0.3073   -0.6429 C   0  0  0  0  0  0  0  0  0  0  0  0
    0.6881    0.9344   -0.2722 C   0  0  1  0  0  0  0  0  0  0  0  0
    0.9089    2.1873    0.5463 C   0  0  0  0  0  0  0  0  0  0  0  0
   -0.0826    1.2750   -1.5274 C   0  0  0  0  0  0  0  0  0  0  0  0
   -0.3090   -0.0287   -2.2875 C   0  0  0  0  0  0  0  0  0  0  0  0
   -1.0973   -0.9305   -1.3708 C   0  0  0  0  0  0  0  0  0  0  0  0
   -1.3952   -2.2707   -2.0035 C   0  0  0  0  0  0  0  0  0  0  0  0
   -2.1908   -3.0658   -0.9657 C   0  0  0  0  0  0  0  0  0  0  0  0
   -3.4368   -2.2842   -0.6803 C   0  0  0  0  0  0  0  0  0  0  0  0
   -4.2681   -3.0277    0.3464 C   0  0  0  0  0  0  0  0  0  0  0  0
   -5.5221   -2.1809    0.5937 C   0  0  0  0  0  3  0  0  0  0  0  0
   -5.0991   -0.8088    1.1178 C   0  0  1  0  0  0  0  0  0  0  0  0
   -4.2173   -0.1377    0.0861 C   0  0  0  0  0  0  0  0  0  0  0  0
   -6.2390   -0.0532    1.2657 O   0  0  0  0  0  0  0  0  0  0  0  0
   -7.1627   -0.5793    2.1438 C   0  0  0  0  0  0  0  0  0  0  0  0
   -8.3442    0.1925    2.3047 C   0  0  0  0  0  0  0  0  0  0  0  0
   -9.4876    0.7348    1.6732 C   0  0  0  0  0  0  0  0  0  0  0  0
   -8.2674    1.6011    1.6870 C   0  0  1  0  0  0  0  0  0  0  0  0
   -8.1605    2.7011    2.7159 C   0  0  0  0  0  1  0  0  0  0  0  0
   -7.6244    1.8810    0.3765 C   0  0  0  0  0  0  0  0  0  0  0  0
   -8.1661    1.2831   -0.8339 C   0  0  0  0  0  3  0  0  0  0  0  0
   -8.2935   -0.1564   -1.0220 C   0  0  0  0  0  0  0  0  0  0  0  0
   -9.5174   -0.6391   -0.6242 F   0  0  0  0  0  0  0  0  0  0  0  0
  1  2  1  0
  2  3  1  0
  2  4  1  0
  4  5  1  0
  5  6  1  0
  6  7  1  0
  7  8  1  6
  7  9  1  0
  9 10  1  0
 10 11  1  0
 11 12  1  0
 12 13  1  1
 12 14  1  0
 14 15  1  0
 15 16  1  0
 16 17  1  6
 16 18  1  0
 18 19  1  0
 19 20  1  0
 20 21  1  0
 21 22  1  0
 22 23  1  0
 23 24  1  0
 24 25  1  0
 25 26  1  0
 26 27  1  6
 26 28  1  0
 28 29  1  0
 29 30  1  0
 30 31  1  0
 31 32  1  0
 32 33  1  1
 32 34  1  0
 34 35  1  0
 35 36  1  0
 36 37  1  0
 32 30  1  0
M  RAD  5   9   2  14   2  25   2  33   2  35   2
M  END
$$$$
