
     RDKit          3D

 25 26  0  0  0  0  0  0  0  0999 V2000
   -3.2197   -0.4797    2.1300 C   0  0  0  0  0  0  0  0  0  0  0  0
   -2.3293   -0.7725    0.9484 C   0  0  1  0  0  0  0  0  0  0  0  0
   -3.0553   -1.7782    0.0812 C   0  0  0  0  0  0  0  0  0  0  0  0
   -4.3568   -1.1536   -0.3743 C   0  0  2  0  0  0  0  0  0  0  0  0
   -5.0377   -2.0606   -1.1923 O   0  0  0  0  0  0  0  0  0  0  0  0
   -4.1460    0.1009   -1.1710 C   0  0  2  0  0  0  0  0  0  0  0  0
   -3.4122   -0.1644   -2.3421 O   0  0  0  0  0  0  0  0  0  0  0  0
   -3.3396    1.0574   -0.3525 C   0  0  1  0  0  0  0  0  0  0  0  0
   -3.9841    1.5831    0.7406 O   0  0  0  0  0  0  0  0  0  0  0  0
   -2.0312    0.4315    0.1182 C   0  0  1  0  0  0  0  0  0  0  0  0
   -1.2964    1.4656    0.7692 N   0  0  0  0  0  0  0  0  0  0  0  0
    0.0169    1.1309    1.2090 C   0  0  0  0  0  3  0  0  0  0  0  0
    1.0131    1.7244    0.2373 C   0  0  0  0  0  0  0  0  0  0  0  0
    1.2752    0.6713   -0.8223 C   0  0  0  0  0  0  0  0  0  0  0  0
    0.1589    0.2896   -1.5229 O   0  0  0  0  0  0  0  0  0  0  0  0
    2.2623    1.1235   -1.7267 O   0  0  0  0  0  0  0  0  0  0  0  0
    2.9679   -0.0073   -2.1312 C   0  0  0  0  0  3  0  0  0  0  0  0
    4.4432    0.1080   -1.8015 C   0  0  0  0  0  0  0  0  0  0  0  0
    4.9131   -0.9427   -1.0257 O   0  0  0  0  0  0  0  0  0  0  0  0
    4.3338   -0.9685    0.2455 C   0  0  1  0  0  0  0  0  0  0  0  0
    5.3162   -0.6986    1.2297 O   0  0  0  0  0  0  0  0  0  0  0  0
    3.2664    0.0729    0.4061 C   0  0  2  0  0  0  0  0  0  0  0  0
    3.1846    0.6264    1.6713 O   0  0  0  0  0  0  0  0  0  0  0  0
    1.9272   -0.4920   -0.0719 C   0  0  1  0  0  0  0  0  0  0  0  0
    1.1293   -0.8672    1.0210 O   0  0  0  0  0  0  0  0  0  0  0  0
  2  1  1  1
  2  3  1  0
  3  4  1  0
  4  5  1  6
  4  6  1  0
  6  7  1  6
  6  8  1  0
  8  9  1  1
  8 10  1  0
 10 11  1  1
 11 12  1  0
 12 13  1  0
 13 14  1  0
 14 15  1  0
 14 16  1  0
 16 17  1  0
 17 18  1  0
 18 19  1  0
 19 20  1  0
 20 21  1  1
 20 22  1  0
 22 23  1  1
 22 24  1  0
 24 25  1  1
 10  2  1  0
 24 14  1  0
M  RAD  2  12   2  17   2
M  END
$$$$
