
     RDKit          3D

 22 23  0  0  0  0  0  0  0  0999 V2000
   -2.7477    3.0403    2.6558 C   0  0  0  0  0  0  0  0  0  0  0  0
   -1.6158    2.1929    2.6858 O   0  0  0  0  0  0  0  0  0  0  0  0
   -1.2798    1.3008    1.7028 C   0  0  0  0  0  0  0  0  0  0  0  0
   -2.1210    0.4842    1.1162 C   0  0  0  0  0  0  0  0  0  0  0  0
   -1.6840   -0.4258    0.0877 C   0  0  0  0  0  0  0  0  0  0  0  0
   -0.3668   -0.4312   -0.2769 C   0  0  0  0  0  0  0  0  0  0  0  0
    0.5407    0.4401    0.3463 N   0  0  0  0  0  0  0  0  0  0  0  0
    1.9263    0.5010    0.0293 C   0  0  0  0  0  0  0  0  0  0  0  0
    2.4790   -0.3134   -0.9353 C   0  0  0  0  0  0  0  0  0  0  0  0
    3.8146   -0.2396   -1.2257 C   0  0  0  0  0  0  0  0  0  0  0  0
    4.6257    0.6443   -0.5637 C   0  0  0  0  0  0  0  0  0  0  0  0
    6.4707    0.7179   -0.9934 Br  0  0  0  0  0  0  0  0  0  0  0  0
    4.1131    1.4712    0.4023 C   0  0  0  0  0  0  0  0  0  0  0  0
    2.7462    1.3885    0.6924 C   0  0  0  0  0  0  0  0  0  0  0  0
    2.1741    2.1731    1.6324 F   0  0  0  0  0  0  0  0  0  0  0  0
    0.0467   -1.2734   -1.2313 N   0  0  0  0  0  0  0  0  0  0  0  0
   -0.8170   -2.1275   -1.8493 C   0  0  0  0  0  0  0  0  0  0  0  0
   -2.1397   -2.1227   -1.4837 C   0  0  0  0  0  0  0  0  0  0  0  0
   -2.6107   -1.2688   -0.5020 C   0  0  0  0  0  0  0  0  0  0  0  0
   -4.0033   -1.2325   -0.0860 C   0  0  0  0  0  0  0  0  0  0  0  0
   -4.9098   -2.0096   -0.6151 C   0  0  0  0  0  0  0  0  0  0  0  0
   -4.6414   -2.9097   -1.5876 F   0  0  0  0  0  0  0  0  0  0  0  0
  1  2  1  0
  2  3  1  0
  3  4  2  3
  4  5  1  0
  5  6  2  0
  6  7  1  0
  7  8  1  0
  8  9  2  0
  9 10  1  0
 10 11  2  0
 11 12  1  0
 11 13  1  0
 13 14  2  0
 14 15  1  0
  6 16  1  0
 16 17  2  0
 17 18  1  0
 18 19  2  0
 19 20  1  0
 20 21  2  3
 21 22  1  0
 19  5  1  0
 14  8  1  0
M  END
$$$$
