
     RDKit          3D

 24 25  0  0  0  0  0  0  0  0999 V2000
    4.7072    0.9971    1.3186 C   0  0  0  0  0  0  0  0  0  0  0  0
    3.2313    0.8574    1.0447 C   0  0  0  0  0  0  0  0  0  0  0  0
    2.5897    0.2777    2.2872 C   0  0  0  0  0  0  0  0  0  0  0  0
    3.0565   -0.0948   -0.1151 C   0  0  0  0  0  0  0  0  0  0  0  0
    1.5954   -0.2953   -0.4612 C   0  0  0  0  0  0  0  0  0  0  0  0
    1.0203    1.0556   -0.8330 C   0  0  0  0  0  0  0  0  0  0  0  0
    1.1326    2.0487    0.2946 C   0  0  1  0  0  0  0  0  0  0  0  0
    2.0126    3.1929   -0.2064 C   0  0  0  0  0  0  0  0  0  0  0  0
   -0.2580    2.6411    0.4993 C   0  0  0  0  0  3  0  0  0  0  0  0
   -1.0442    1.8907    1.5268 C   0  0  0  0  0  0  0  0  0  0  0  0
   -2.5005    1.8656    1.0455 C   0  0  0  0  0  0  0  0  0  0  0  0
   -2.8965    0.4194    0.9360 C   0  0  1  0  0  0  0  0  0  0  0  0
   -3.4297   -0.0347    2.2626 C   0  0  0  0  0  0  0  0  0  0  0  0
   -3.8229   -1.4823    2.1426 C   0  0  0  0  0  0  0  0  0  0  0  0
   -3.8351    0.1583   -0.1739 C   0  0  0  0  0  0  0  0  0  0  0  0
   -3.4576   -0.2916   -1.3170 N   0  0  0  0  0  3  0  0  0  0  0  0
   -2.0618   -0.5779   -1.5988 C   0  0  0  0  0  0  0  0  0  0  0  0
   -1.5263   -1.4241   -0.5022 C   0  0  0  0  0  0  0  0  0  0  0  0
   -0.4171   -2.1057   -0.5606 C   0  0  0  0  0  0  0  0  0  0  0  0
    0.0167   -2.8759    0.5119 O   0  0  0  0  0  0  0  0  0  0  0  0
    0.4396   -2.0872   -1.7906 C   0  0  0  0  0  0  0  0  0  0  0  0
    1.8701   -2.5970   -1.6327 C   0  0  0  0  0  0  0  0  0  0  0  0
    1.5562   -1.1441   -1.7272 C   0  0  0  0  0  0  0  0  0  0  0  0
    2.0215   -0.3938   -2.9510 C   0  0  0  0  0  1  0  0  0  0  0  0
  1  2  1  0
  2  3  1  0
  2  4  1  0
  4  5  1  0
  5  6  1  0
  6  7  1  0
  7  8  1  6
  7  9  1  0
  9 10  1  0
 10 11  1  0
 11 12  1  0
 12 13  1  1
 13 14  1  0
 12 15  1  0
 15 16  2  3
 16 17  1  0
 17 18  1  0
 18 19  2  3
 19 20  1  0
 19 21  1  0
 21 22  1  0
 22 23  1  0
 23 24  1  0
 23  5  1  0
 23 21  1  0
M  CHG  1  16   1
M  RAD  3   9   2  16   2  24   2
M  END
$$$$
