
     RDKit          3D

 11 11  0  0  0  0  0  0  0  0999 V2000
    2.8542    0.4055    1.2109 O   0  0  0  0  0  0  0  0  0  0  0  0
    1.6074    0.8579    1.5785 C   0  0  0  0  0  0  0  0  0  0  0  0
    0.5214    0.5925    0.6137 C   0  0  1  0  0  0  0  0  0  0  0  0
    0.7007    1.1722   -0.6880 N   0  0  0  0  0  0  0  0  0  0  0  0
   -0.3652    0.6644   -1.5371 C   0  0  0  0  0  0  0  0  0  0  0  0
   -1.5771    0.2549   -0.7350 C   0  0  2  0  0  0  0  0  0  0  0  0
   -1.8623    1.3214    0.1457 O   0  0  0  0  0  0  0  0  0  0  0  0
   -1.2805   -0.9430    0.1636 C   0  0  1  0  0  0  0  0  0  0  0  0
   -1.6839   -2.1322   -0.3778 O   0  0  0  0  0  0  0  0  0  0  0  0
    0.2331   -0.8924    0.4103 C   0  0  1  0  0  0  0  0  0  0  0  0
    0.8522   -1.3011   -0.7847 O   0  0  0  0  0  0  0  0  0  0  0  0
  1  2  1  0
  3  2  1  1
  3  4  1  0
  4  5  1  0
  5  6  1  0
  6  7  1  1
  6  8  1  0
  8  9  1  6
  8 10  1  0
 10 11  1  6
 10  3  1  0
M  END
$$$$
