
     RDKit          3D

 45 50  0  0  0  0  0  0  0  0999 V2000
    0.4284   -1.7710   -0.8225 C   0  0  0  0  0  0  0  0  0  0  0  0
   -0.5991   -2.2537   -0.3510 C   0  0  0  0  0  0  0  0  0  0  0  0
   -1.0248   -3.5406    0.0441 C   0  0  0  0  0  0  0  0  0  0  0  0
   -0.0219   -4.3273    0.0173 O   0  0  0  0  0  0  0  0  0  0  0  0
   -2.3192   -4.0657    0.4348 N   0  0  0  0  0  0  0  0  0  0  0  0
   -3.6128   -3.7661   -0.2078 C   0  0  0  0  0  0  0  0  0  0  0  0
   -3.9161   -3.1674   -1.3934 C   0  0  0  0  0  0  0  0  0  0  0  0
   -3.0060   -2.1720   -2.1626 C   0  0  0  0  0  0  0  0  0  0  0  0
   -1.8815   -1.6424   -1.8087 C   0  0  0  0  0  0  0  0  0  0  0  0
   -0.7716   -2.0753   -2.8127 C   0  0  0  0  0  0  0  0  0  0  0  0
    0.4586   -1.6588   -2.3840 C   0  0  0  0  0  0  0  0  0  0  0  0
    1.6048   -1.4615   -3.0890 N   0  0  0  0  0  0  0  0  0  0  0  0
    2.9257   -2.0501   -2.5954 C   0  0  0  0  0  0  0  0  0  0  0  0
    3.2751   -2.1532   -1.2762 N   0  0  0  0  0  0  0  0  0  0  0  0
    2.5026   -1.7604   -0.1107 C   0  0  0  0  0  0  0  0  0  0  0  0
    2.6938   -2.4294    1.1501 N   0  0  0  0  0  0  0  0  0  0  0  0
    1.3737   -2.6963    1.9373 C   0  0  0  0  0  0  0  0  0  0  0  0
    0.4128   -1.8149    1.6719 C   0  0  0  0  0  0  0  0  0  0  0  0
   -0.7893   -1.2394    1.7390 C   0  0  0  0  0  0  0  0  0  0  0  0
   -1.6911   -0.8259    0.7470 C   0  0  0  0  0  0  0  0  0  0  0  0
   -2.8641   -0.2550    1.3700 N   0  0  0  0  0  0  0  0  0  0  0  0
   -3.5876    0.7086    0.5553 C   0  0  0  0  0  0  0  0  0  0  0  0
   -2.8140    2.0036    0.5829 C   0  0  0  0  0  0  0  0  0  0  0  0
   -3.6812    3.1473    0.6578 N   0  0  0  0  0  0  0  0  0  0  0  0
   -3.3430    4.0504   -0.4275 C   0  0  0  0  0  0  0  0  0  0  0  0
   -2.5853    3.3020   -1.4775 C   0  0  0  0  0  0  0  0  0  0  0  0
   -1.2644    3.8018   -1.5103 O   0  0  0  0  0  0  0  0  0  0  0  0
   -0.3892    2.7243   -1.6636 C   0  0  0  0  0  0  0  0  0  0  0  0
    0.4760    2.4821   -0.4697 C   0  0  0  0  0  0  0  0  0  0  0  0
    0.4431    1.2311    0.0024 O   0  0  0  0  0  0  0  0  0  0  0  0
    1.6150    0.5551    0.2655 C   0  0  0  0  0  0  0  0  0  0  0  0
    2.7100    1.2323   -0.5233 C   0  0  0  0  0  0  0  0  0  0  0  0
    2.4550    2.2649   -1.3545 O   0  0  0  0  0  0  0  0  0  0  0  0
    3.4541    3.2797   -0.8835 C   0  0  0  0  0  0  0  0  0  0  0  0
    3.6041    2.9460    0.5000 C   0  0  0  0  0  0  0  0  0  0  0  0
    3.7268    2.6991    1.5768 C   0  0  0  0  0  0  0  0  0  0  0  0
    3.8888    2.4142    2.9174 C   0  0  0  0  0  0  0  0  0  0  0  0
    4.3807    3.2394    3.7026 O   0  0  0  0  0  0  0  0  0  0  0  0
    3.4294    1.0177    3.4022 C   0  0  0  0  0  0  0  0  0  0  0  0
    2.9964    0.3177    2.0807 C   0  0  0  0  0  3  0  0  0  0  0  0
    1.8660    0.8459    1.5504 O   0  0  0  0  0  0  0  0  0  0  0  0
   -5.0998    2.7802    0.5602 C   0  0  0  0  0  0  0  0  0  0  0  0
   -5.5098    1.9369    1.5598 O   0  0  0  0  0  0  0  0  0  0  0  0
   -1.4711   -0.9452   -0.5888 C   0  0  0  0  0  0  0  0  0  0  0  0
    1.5217   -0.9085   -0.1684 C   0  0  0  0  0  0  0  0  0  0  0  0
  1  2  2  0
  2  3  1  0
  3  4  2  0
  3  5  1  0
  5  6  1  0
  6  7  2  3
  7  8  1  0
  8  9  2  3
  9 10  1  0
 10 11  2  0
 11 12  1  0
 12 13  1  0
 13 14  2  0
 14 15  1  0
 15 16  1  0
 16 17  1  0
 17 18  2  3
 18 19  1  0
 19 20  2  3
 20 21  1  0
 21 22  1  0
 22 23  1  0
 23 24  1  0
 24 25  1  0
 25 26  1  0
 26 27  1  0
 27 28  1  0
 28 29  1  0
 29 30  1  0
 30 31  1  0
 31 32  1  0
 32 33  1  0
 33 34  1  0
 34 35  1  0
 35 36  3  0
 36 37  1  0
 37 38  2  0
 37 39  1  0
 39 40  1  0
 40 41  1  0
 24 42  1  0
 42 43  1  0
 20 44  1  0
 15 45  2  0
 11  1  1  0
 45  1  1  0
 44  2  1  0
 44  9  1  0
 41 31  1  0
 45 31  1  0
M  RAD  1  40   2
M  END
$$$$
