
     RDKit          3D

 29 31  0  0  0  0  0  0  0  0999 V2000
   -5.0840   -1.2574    1.3675 O   0  0  0  0  0  0  0  0  0  0  0  0
   -3.9141   -0.7402    1.1645 C   0  0  0  0  0  0  0  0  0  0  0  0
   -2.8325   -1.2614    1.8981 N   0  0  0  0  0  0  0  0  0  0  0  0
   -2.1604   -0.4886    3.0196 C   0  0  0  0  0  0  0  0  0  0  0  0
   -0.9502   -1.1154    3.4694 C   0  0  0  0  0  0  0  0  0  0  0  0
    0.0876   -1.3943    2.5219 C   0  0  0  0  0  0  0  0  0  0  0  0
    0.0218   -0.4280    1.3351 C   0  0  0  0  0  0  0  0  0  0  0  0
    0.7871   -0.6048    0.2876 C   0  0  0  0  0  0  0  0  0  0  0  0
    1.6567   -1.7323    0.3077 C   0  0  0  0  0  0  0  0  0  0  0  0
    2.3928   -1.9684   -0.8819 F   0  0  0  0  0  0  0  0  0  0  0  0
    1.8081   -2.6328    1.2252 C   0  0  0  0  0  0  0  0  0  0  0  0
    0.9556   -2.3776    2.3471 C   0  0  0  0  0  0  0  0  0  0  0  0
   -3.9119    0.3354    0.1943 N   0  0  0  0  0  0  0  0  0  0  0  0
   -2.6883    0.3827   -0.7638 C   0  0  0  0  0  0  0  0  0  0  0  0
   -5.1969    1.1011    0.3012 C   0  0  0  0  0  0  0  0  0  0  0  0
   -4.8449    2.7340    0.6971 C   0  0  0  0  0  0  0  0  0  0  0  0
   -3.7057    2.4743    0.2619 C   0  0  0  0  0  0  0  0  0  0  0  0
   -3.0527    2.3238    0.0035 C   0  0  0  0  0  0  0  0  0  0  0  0
   -2.0335    2.0827   -0.3805 C   0  0  0  0  0  0  0  0  0  0  0  0
   -0.8666    2.2477   -0.6188 C   0  0  0  0  0  0  0  0  0  0  0  0
    0.1044    1.2997   -1.1766 C   0  0  0  0  0  0  0  0  0  0  0  0
    0.7712    0.2331   -0.9262 C   0  0  0  0  0  0  0  0  0  0  0  0
    1.7395   -0.1712   -1.9625 N   0  0  0  0  0  0  0  0  0  0  0  0
    2.8532    0.6983   -2.1504 C   0  0  0  0  0  0  0  0  0  0  0  0
    3.9988    0.5845   -2.1524 C   0  0  0  0  0  0  0  0  0  0  0  0
    4.7030   -0.7966   -1.8802 C   0  0  0  0  0  0  0  0  0  0  0  0
    5.9371   -1.0608   -2.2213 C   0  0  0  0  0  0  0  0  0  0  0  0
    6.7720   -0.1602   -2.9294 N   0  0  0  0  0  0  0  0  0  0  0  0
    6.6526    1.6926   -2.5781 Br  0  0  0  0  0  0  0  0  0  0  0  0
  1  2  2  0
  2  3  1  0
  3  4  1  0
  4  5  1  0
  5  6  1  0
  6  7  2  0
  7  8  1  0
  8  9  2  0
  9 10  1  0
  9 11  1  0
 11 12  2  0
  2 13  1  0
 13 14  1  0
 13 15  1  0
 15 16  2  0
 16 17  1  0
 17 18  3  0
 18 19  1  0
 19 20  2  3
 20 21  1  0
 21 22  2  3
 22 23  1  0
 23 24  1  0
 24 25  2  3
 25 26  1  0
 26 27  2  3
 27 28  1  0
 28 29  1  0
 12  6  1  0
 22  8  1  0
 19 14  1  0
M  END
$$$$
