
     RDKit          3D

 67 68  0  0  0  0  0  0  0  0999 V2000
    6.2054   -3.3482   -1.6152 C   0  0  0  0  0  0  0  0  0  0  0  0
    6.5406   -2.2657   -0.7986 O   0  0  0  0  0  0  0  0  0  0  0  0
    7.0719   -2.6990    0.4074 C   0  0  0  0  0  3  0  0  0  0  0  0
    7.7821   -1.6764    1.0195 O   0  0  0  0  0  0  0  0  0  0  0  0
    6.9460   -0.5997    1.2682 C   0  0  2  0  0  0  0  0  0  0  0  0
    6.1643   -0.1807    0.0329 C   0  0  0  0  0  0  0  0  0  0  0  0
    4.8269   -0.4836    0.2413 O   0  0  0  0  0  0  0  0  0  0  0  0
    7.7759    0.5854    1.7128 C   0  0  0  0  0  3  0  0  0  0  0  0
    7.3056    1.1369    2.9716 N   0  0  0  0  0  0  0  0  0  0  0  0
    6.1009    1.8977    2.7531 C   0  0  0  0  0  3  0  0  0  0  0  0
    6.3961    3.2569    2.1706 C   0  0  0  0  0  0  0  0  0  0  0  0
    7.5195    3.8730    2.9731 C   0  0  0  0  0  0  0  0  0  0  0  0
    5.2683    4.0453    2.3151 O   0  0  0  0  0  0  0  0  0  0  0  0
    5.2914    5.0964    1.5269 O   0  0  0  0  0  0  0  0  0  0  0  0
    4.5651    6.1089    2.1380 C   0  0  0  0  0  0  0  0  0  0  0  0
    3.9409    7.0270    1.1228 C   0  0  0  0  0  0  0  0  0  0  0  0
    2.5996    7.2506    1.4477 O   0  0  0  0  0  0  0  0  0  0  0  0
    1.8323    6.6233    0.4707 C   0  0  0  0  0  3  0  0  0  0  0  0
    0.3723    6.5276    0.8973 C   0  0  0  0  0  3  0  0  0  0  0  0
   -0.4503    7.0912   -0.2297 C   0  0  2  0  0  0  0  0  0  0  0  0
   -0.2890    8.4611   -0.3639 O   0  0  0  0  0  0  0  0  0  0  0  0
   -1.9134    6.8133   -0.0351 C   0  0  0  0  0  3  0  0  0  0  0  0
   -2.1666    5.4723    0.5939 C   0  0  0  0  0  3  0  0  0  0  0  0
   -3.4596    4.9359    0.0022 C   0  0  0  0  0  3  0  0  0  0  0  0
   -3.1355    3.8264   -0.8865 N   0  0  0  0  0  0  0  0  0  0  0  0
   -3.5851    2.6227   -0.2348 C   0  0  0  0  0  3  0  0  0  0  0  0
   -3.3293    1.4408   -1.1194 C   0  0  1  0  0  0  0  0  0  0  0  0
   -3.5826    0.1292   -0.4321 C   0  0  0  0  0  3  0  0  0  0  0  0
   -4.9529   -0.0265   -0.2606 O   0  0  0  0  0  0  0  0  0  0  0  0
   -5.3146    0.3527    1.0272 C   0  0  0  0  0  3  0  0  0  0  0  0
   -5.8565   -0.8396    1.7666 C   0  0  1  0  0  0  0  0  0  0  0  0
   -7.0869   -1.2437    1.2498 O   0  0  0  0  0  0  0  0  0  0  0  0
   -7.9931   -1.3860    2.2966 C   0  0  0  0  0  3  0  0  0  0  0  0
   -8.0453   -2.7144    2.7392 O   0  0  0  0  0  0  0  0  0  0  0  0
   -7.8936   -2.7305    4.1251 C   0  0  0  0  0  3  0  0  0  0  0  0
   -6.4478   -2.9247    4.5167 C   0  0  0  0  0  2  0  0  0  0  0  0
   -4.8241   -1.9407    1.6792 C   0  0  0  0  0  3  0  0  0  0  0  0
   -5.0449   -2.7966    0.4604 C   0  0  0  0  0  3  0  0  0  0  0  0
   -4.6687   -4.2274    0.8153 C   0  0  0  0  0  3  0  0  0  0  0  0
   -3.3851   -4.2007    1.6276 C   0  0  0  0  0  0  0  0  0  0  0  0
   -2.7848   -5.5819    1.6289 C   0  0  0  0  0  3  0  0  0  0  0  0
   -1.7753   -5.6691    0.6725 O   0  0  0  0  0  0  0  0  0  0  0  0
   -0.5522   -5.6537    1.3457 C   0  0  0  0  0  3  0  0  0  0  0  0
    0.5478   -6.0249    0.3657 C   0  0  2  0  0  0  0  0  0  0  0  0
    0.3197   -7.4436   -0.0971 C   0  0  0  0  0  2  0  0  0  0  0  0
    1.7594   -5.9663    1.0632 O   0  0  0  0  0  0  0  0  0  0  0  0
    2.7662   -6.5162    0.2892 C   0  0  0  0  0  3  0  0  0  0  0  0
    3.0768   -5.6443   -0.9026 C   0  0  1  0  0  0  0  0  0  0  0  0
    2.2233   -5.9528   -1.9640 O   0  0  0  0  0  0  0  0  0  0  0  0
    2.8973   -4.1790   -0.5545 C   0  0  0  0  0  3  0  0  0  0  0  0
    4.1357   -3.5320   -0.4829 O   0  0  0  0  0  0  0  0  0  0  0  0
    4.6986   -3.4723   -1.7509 C   0  0  1  0  0  0  0  0  0  0  0  0
    4.1923   -2.1996   -2.4009 C   0  0  0  0  0  0  0  0  0  0  0  0
    2.8008   -2.2123   -2.2730 O   0  0  0  0  0  0  0  0  0  0  0  0
    2.2499   -2.3382   -3.5575 C   0  0  0  0  0  3  0  0  0  0  0  0
    0.7583   -2.0904   -3.4092 C   0  0  0  0  0  0  0  0  0  0  0  0
    0.6108   -0.9603   -2.6190 O   0  0  0  0  0  0  0  0  0  0  0  0
   -0.7028   -0.5338   -2.5172 C   0  0  0  0  0  3  0  0  0  0  0  0
   -1.0027    0.3363   -3.5612 O   0  0  0  0  0  0  0  0  0  0  0  0
   -2.2255    0.0137   -4.0331 N   0  0  0  0  0  0  0  0  0  0  0  0
   -2.8835    1.1367   -4.5745 N   0  0  0  0  0  0  0  0  0  0  0  0
   -3.0043    2.1306   -3.5147 C   0  0  0  0  0  0  0  0  0  0  0  0
   -3.9444    1.5430   -2.4788 C   0  0  0  0  0  0  0  0  0  0  0  0
   -5.2485    2.2801   -2.5131 C   0  0  0  0  0  3  0  0  0  0  0  0
   -5.6952    2.7352   -1.2216 N   0  0  0  0  0  0  0  0  0  0  0  0
   -7.0958    3.1218   -1.3762 C   0  0  0  0  0  3  0  0  0  0  0  0
   -7.2020    4.3829   -1.9558 O   0  0  0  0  0  0  0  0  0  0  0  0
  1  2  1  0
  2  3  1  0
  3  4  1  0
  4  5  1  0
  5  6  1  6
  6  7  1  0
  5  8  1  0
  8  9  1  0
  9 10  1  0
 10 11  1  0
 11 12  1  0
 11 13  1  0
 13 14  1  0
 14 15  1  0
 15 16  1  0
 16 17  1  0
 17 18  1  0
 18 19  1  0
 19 20  1  0
 20 21  1  1
 20 22  1  0
 22 23  1  0
 23 24  1  0
 24 25  1  0
 25 26  1  0
 27 26  1  1
 27 28  1  0
 28 29  1  0
 29 30  1  0
 30 31  1  0
 31 32  1  6
 32 33  1  0
 33 34  1  0
 34 35  1  0
 35 36  1  0
 31 37  1  0
 37 38  1  0
 38 39  1  0
 39 40  1  0
 40 41  1  0
 41 42  1  0
 42 43  1  0
 43 44  1  0
 44 45  1  1
 44 46  1  0
 46 47  1  0
 47 48  1  0
 48 49  1  6
 48 50  1  0
 50 51  1  0
 51 52  1  0
 52 53  1  0
 53 54  1  0
 54 55  1  0
 55 56  1  0
 56 57  1  0
 57 58  1  0
 58 59  1  0
 59 60  1  0
 60 61  1  0
 61 62  1  0
 62 63  1  0
 63 64  1  0
 64 65  1  0
 65 66  1  0
 66 67  1  0
 52  1  1  1
 63 27  1  0
M  RAD  8   3   2   8   2  10   2  18   2  19   2  22   2  23   2  24   2
M  RAD  8  26   2  28   2  30   2  33   2  35   2  36   3  37   2  38   2
M  RAD  8  39   2  41   2  43   2  45   3  47   2  50   2  55   2  58   2
M  RAD  2  64   2  66   2
M  END
$$$$
