
     RDKit          3D

 21 21  0  0  0  0  0  0  0  0999 V2000
    4.4386   -1.8885   -0.1349 C   0  0  0  0  0  0  0  0  0  0  0  0
    4.7865   -0.7150    0.7487 C   0  0  0  0  0  0  0  0  0  0  0  0
    6.1978   -0.2352    0.5286 C   0  0  0  0  0  0  0  0  0  0  0  0
    3.7733    0.3806    0.6939 C   0  0  0  0  0  0  0  0  0  0  0  0
    3.5871    0.9589   -0.6786 C   0  0  0  0  0  0  0  0  0  0  0  0
    2.5518    2.0481   -0.6248 C   0  0  0  0  0  0  0  0  0  0  0  0
    1.2150    1.5364   -0.1426 C   0  0  1  0  0  0  0  0  0  0  0  0
    0.2191    2.6475   -0.1045 C   0  0  0  0  0  0  0  0  0  0  0  0
    0.7338    0.3536   -0.9459 C   0  0  0  0  0  3  0  0  0  0  0  0
   -0.5922   -0.0906   -0.4058 C   0  0  1  0  0  0  0  0  0  0  0  0
   -1.1499   -1.2737   -1.1530 C   0  0  0  0  0  0  0  0  0  0  0  0
   -2.3073   -1.8863   -0.4365 C   0  0  2  0  0  0  0  0  0  0  0  0
   -2.2126   -3.3720   -0.3212 C   0  0  0  0  0  0  0  0  0  0  0  0
   -3.6428   -1.3995   -0.9044 C   0  0  0  0  0  3  0  0  0  0  0  0
   -4.2853   -0.5963    0.2231 C   0  0  0  0  0  0  0  0  0  0  0  0
   -3.7694    0.8049    0.1389 C   0  0  0  0  0  0  0  0  0  0  0  0
   -4.8218    1.7910    0.3728 N   0  0  0  0  0  0  0  0  0  0  0  0
   -2.5887    1.0670    1.0251 C   0  0  0  0  0  3  0  0  0  0  0  0
   -1.9801   -0.1877    1.5913 C   0  0  0  0  0  0  0  0  0  0  0  0
   -0.5637   -0.3979    1.0704 C   0  0  2  0  0  0  0  0  0  0  0  0
    0.4105    0.4550    1.8193 C   0  0  0  0  0  1  0  0  0  0  0  0
  1  2  1  0
  2  3  1  0
  2  4  1  0
  4  5  1  0
  5  6  1  0
  6  7  1  0
  7  8  1  6
  7  9  1  0
 10  9  1  6
 10 11  1  0
 11 12  1  0
 12 13  1  6
 12 14  1  0
 14 15  1  0
 15 16  1  0
 16 17  1  0
 16 18  1  0
 18 19  1  0
 19 20  1  0
 20 21  1  1
 20 10  1  0
M  RAD  4   9   2  14   2  18   2  21   2
M  END
$$$$
