
     RDKit          3D

 24 23  0  0  0  0  0  0  0  0999 V2000
    2.5285    4.4931    0.0317 C   0  0  0  0  0  0  0  0  0  0  0  0
    3.1095    3.2313   -0.0043 O   0  0  0  0  0  0  0  0  0  0  0  0
    3.0776    2.6634   -1.2644 C   0  0  0  0  0  3  0  0  0  0  0  0
    2.5868    1.2487   -1.1763 C   0  0  0  0  0  3  0  0  0  0  0  0
    2.0613    0.9711    0.1981 C   0  0  2  0  0  0  0  0  0  0  0  0
    3.1237    1.1613    1.2606 C   0  0  0  0  0  0  0  0  0  0  0  0
    4.3038    0.2396    1.0444 C   0  0  0  0  0  3  0  0  0  0  0  0
    4.1332   -0.5700   -0.0861 O   0  0  0  0  0  0  0  0  0  0  0  0
    5.3710   -1.1342   -0.3830 C   0  0  0  0  0  3  0  0  0  0  0  0
    5.4016   -2.5618    0.0900 C   0  0  0  0  0  3  0  0  0  0  0  0
    6.7326   -2.9904    0.0331 F   0  0  0  0  0  0  0  0  0  0  0  0
    1.5278   -0.4353    0.3229 C   0  0  0  0  0  0  0  0  0  0  0  0
    1.0273   -0.6026    1.7414 C   0  0  0  0  0  3  0  0  0  0  0  0
   -0.3162   -0.2335    1.7968 O   0  0  0  0  0  0  0  0  0  0  0  0
   -0.9663   -0.8487    0.7288 C   0  0  0  0  0  3  0  0  0  0  0  0
   -1.2529    0.1915   -0.3304 C   0  0  0  0  0  0  0  0  0  0  0  0
   -2.5849    0.8546   -0.1442 C   0  0  0  0  0  3  0  0  0  0  0  0
   -3.6577   -0.2055   -0.2130 C   0  0  0  0  0  3  0  0  0  0  0  0
   -4.3656   -0.1340   -1.5593 C   0  0  0  0  0  0  0  0  0  0  0  0
   -5.4343   -1.1958   -1.6184 C   0  0  0  0  0  3  0  0  0  0  0  0
   -6.4108   -0.9491   -0.5130 C   0  0  0  0  0  0  0  0  0  0  0  0
   -7.5340   -1.9396   -0.4556 C   0  0  0  0  0  2  0  0  0  0  0  0
   -5.7292   -0.7501    0.8245 C   0  0  0  0  0  3  0  0  0  0  0  0
   -6.7329   -0.5040    1.9182 C   0  0  0  0  0  0  0  0  0  0  0  0
  1  2  1  0
  2  3  1  0
  3  4  1  0
  5  4  1  6
  5  6  1  0
  6  7  1  0
  7  8  1  0
  8  9  1  0
  9 10  1  0
 10 11  1  0
  5 12  1  0
 12 13  1  0
 13 14  1  0
 14 15  1  0
 15 16  1  0
 16 17  1  0
 17 18  1  0
 18 19  1  0
 19 20  1  0
 20 21  1  0
 21 22  1  0
 21 23  1  0
 23 24  1  0
M  RAD  8   3   2   4   2   7   2   9   2  10   2  13   2  15   2  17   2
M  RAD  4  18   2  20   2  22   3  23   2
M  END
$$$$
