
     RDKit          3D

 31 31  0  0  0  0  0  0  0  0999 V2000
    7.0636   -3.1571   -1.3177 C   0  0  0  0  0  0  0  0  0  0  0  0
    5.9265   -3.4718   -0.3527 C   0  0  0  0  0  0  0  0  0  0  0  0
    6.1578   -2.8151    0.9967 C   0  0  0  0  0  0  0  0  0  0  0  0
    4.6104   -2.9550   -0.9138 C   0  0  0  0  0  0  0  0  0  0  0  0
    4.6989   -1.4475   -1.1092 C   0  0  0  0  0  0  0  0  0  0  0  0
    4.9754   -0.7596    0.2067 C   0  0  0  0  0  0  0  0  0  0  0  0
    3.8519   -1.0730    1.1679 C   0  0  1  0  0  0  0  0  0  0  0  0
    4.0331   -0.4357    2.5040 C   0  0  0  0  0  0  0  0  0  0  0  0
    2.4966   -0.7967    0.5553 C   0  0  0  0  0  3  0  0  0  0  0  0
    2.3280    0.6353    0.1517 C   0  0  0  0  0  0  0  0  0  0  0  0
    2.4614    1.5820    1.2993 C   0  0  0  0  0  0  0  0  0  0  0  0
    2.2800    3.0040    0.8171 C   0  0  2  0  0  0  0  0  0  0  0  0
    2.4424    3.9066    2.0376 C   0  0  0  0  0  0  0  0  0  0  0  0
    0.9086    3.2451    0.2029 C   0  0  0  0  0  0  0  0  0  0  0  0
    0.6818    2.3249   -0.9887 C   0  0  0  0  0  0  0  0  0  0  0  0
    1.7584    2.6376   -1.9375 N   0  0  0  0  0  0  0  0  0  0  0  0
   -0.5892    2.8085   -1.6888 C   0  0  0  0  0  0  0  0  0  0  0  0
   -1.7895    2.7701   -0.7962 C   0  0  0  0  0  0  0  0  0  0  0  0
   -2.1318    1.4058   -0.2832 C   0  0  0  0  0  0  0  0  0  0  0  0
   -1.0050    0.8287    0.5224 C   0  0  0  0  0  0  0  0  0  0  0  0
   -2.4031    0.5169   -1.4764 C   0  0  0  0  0  0  0  0  0  0  0  0
   -2.7608   -0.8909   -1.0864 C   0  0  0  0  0  0  0  0  0  0  0  0
   -4.0044   -0.9461   -0.2245 C   0  0  0  0  0  0  0  0  0  0  0  0
   -3.7219   -0.1403    1.0193 C   0  0  0  0  0  0  0  0  0  0  0  0
   -4.2950   -2.2626    0.0181 O   0  0  0  0  0  0  0  0  0  0  0  0
   -5.3482   -2.4909    0.8596 C   0  0  0  0  0  0  0  0  0  0  0  0
   -5.5536   -1.4183    1.8992 C   0  0  0  0  0  0  0  0  0  0  0  0
   -6.0859   -0.1380    1.2972 C   0  0  0  0  0  0  0  0  0  0  0  0
   -6.4229   -0.3891   -0.1424 C   0  0  0  0  0  0  0  0  0  0  0  0
   -5.1694   -0.2980   -0.9802 C   0  0  2  0  0  0  0  0  0  0  0  0
   -5.3943   -1.0868   -2.2574 C   0  0  0  0  0  2  0  0  0  0  0  0
  1  2  1  0
  2  3  1  0
  2  4  1  0
  4  5  1  0
  5  6  1  0
  6  7  1  0
  7  8  1  1
  7  9  1  0
  9 10  1  0
 10 11  1  0
 11 12  1  0
 12 13  1  1
 12 14  1  0
 14 15  1  0
 15 16  1  0
 15 17  1  0
 17 18  1  0
 18 19  1  0
 19 20  1  0
 19 21  1  0
 21 22  1  0
 22 23  1  0
 23 24  1  0
 23 25  1  0
 25 26  1  0
 26 27  1  0
 27 28  1  0
 28 29  1  0
 29 30  1  0
 30 31  1  6
 30 23  1  0
M  RAD  2   9   2  31   3
M  END
$$$$
