
     RDKit          3D

 20 20  0  0  0  0  0  0  0  0999 V2000
   -3.2238    0.9925    2.2567 O   0  0  0  0  0  0  0  0  0  0  0  0
   -2.9592    1.2776    0.9178 C   0  0  0  0  0  0  0  0  0  0  0  0
   -1.5275    0.8871    0.6093 C   0  0  1  0  0  0  0  0  0  0  0  0
   -1.3709   -0.5300    0.8600 N   0  0  0  0  0  0  0  0  0  0  0  0
   -1.0340   -1.2502   -0.3543 C   0  0  2  0  0  0  0  0  0  0  0  0
   -2.3222   -1.8434   -0.9009 C   0  0  0  0  0  0  0  0  0  0  0  0
   -2.0167   -2.5372   -2.0651 O   0  0  0  0  0  0  0  0  0  0  0  0
   -0.1662   -2.2939   -0.0642 O   0  0  0  0  0  0  0  0  0  0  0  0
    0.9978   -1.7619    0.4773 C   0  0  1  0  0  0  0  0  0  0  0  0
    1.1578   -2.3388    1.7379 O   0  0  0  0  0  0  0  0  0  0  0  0
    2.1544   -2.0823   -0.4136 C   0  0  0  0  0  0  0  0  0  0  0  0
    3.0379   -1.0283   -0.5668 O   0  0  0  0  0  0  0  0  0  0  0  0
    2.4113    0.1265   -0.7571 O   0  0  0  0  0  0  0  0  0  0  0  0
    2.1002    0.6068    0.5160 C   0  0  1  0  0  0  0  0  0  0  0  0
    3.2513    1.1830    1.0641 O   0  0  0  0  0  0  0  0  0  0  0  0
    1.1021    1.5365    0.5319 O   0  0  0  0  0  0  0  0  0  0  0  0
    0.8829    2.1196   -0.6267 O   0  0  0  0  0  0  0  0  0  0  0  0
   -0.4702    2.4426   -0.6611 C   0  0  1  0  0  0  0  0  0  0  0  0
   -0.8108    3.2548   -1.8703 C   0  0  0  0  0  0  0  0  0  0  0  0
   -1.1943    1.2388   -0.6911 O   0  0  0  0  0  0  0  0  0  0  0  0
  1  2  1  0
  3  2  1  6
  3  4  1  0
  4  5  1  0
  5  6  1  1
  6  7  1  0
  5  8  1  0
  8  9  1  0
  9 10  1  1
  9 11  1  0
 11 12  1  0
 12 13  1  0
 13 14  1  0
 14 15  1  6
 14 16  1  0
 16 17  1  0
 17 18  1  0
 18 19  1  6
 18 20  1  0
 20  3  1  0
M  END
$$$$
