
     RDKit          3D

 67 69  0  0  0  0  0  0  0  0999 V2000
  -10.2937   -7.4149    0.5738 C   0  0  0  0  0  0  0  0  0  0  0  0
   -9.6886   -6.2660    0.1201 O   0  0  0  0  0  0  0  0  0  0  0  0
   -8.4685   -6.0006    0.7418 C   0  0  0  0  0  3  0  0  0  0  0  0
   -7.4870   -6.0494   -0.2498 O   0  0  0  0  0  0  0  0  0  0  0  0
   -7.6571   -4.9315   -1.0957 C   0  0  2  0  0  0  0  0  0  0  0  0
   -6.5845   -5.0173   -2.1493 C   0  0  0  0  0  0  0  0  0  0  0  0
   -7.5801   -3.6928   -0.2601 C   0  0  0  0  0  3  0  0  0  0  0  0
   -7.7223   -2.4905   -1.1552 C   0  0  1  0  0  0  0  0  0  0  0  0
   -9.0247   -2.4620   -1.9045 C   0  0  0  0  0  3  0  0  0  0  0  0
  -10.0972   -1.6760   -1.2218 C   0  0  0  0  0  0  0  0  0  0  0  0
   -9.9620   -1.8567    0.2740 C   0  0  2  0  0  0  0  0  0  0  0  0
  -11.0565   -2.7302    0.8454 C   0  0  0  0  0  0  0  0  0  0  0  0
   -9.9439   -0.5956    0.8473 O   0  0  0  0  0  0  0  0  0  0  0  0
   -8.6700   -0.3369    1.3210 C   0  0  1  0  0  0  0  0  0  0  0  0
   -7.7711   -1.2823    0.8904 O   0  0  0  0  0  0  0  0  0  0  0  0
   -8.2425    1.0830    1.0429 C   0  0  2  0  0  0  0  0  0  0  0  0
   -8.5150    1.5222   -0.3610 C   0  0  0  0  0  3  0  0  0  0  0  0
   -8.0593    2.9344   -0.5375 C   0  0  2  0  0  0  0  0  0  0  0  0
   -8.7518    3.9108    0.3847 C   0  0  0  0  0  0  0  0  0  0  0  0
  -10.1160    3.9941    0.1548 O   0  0  0  0  0  0  0  0  0  0  0  0
  -10.6810    2.7424    0.3505 C   0  0  0  0  0  3  0  0  0  0  0  0
  -12.1100    2.8611    0.8576 C   0  0  0  0  0  2  0  0  0  0  0  0
   -8.2567    3.3536   -1.8587 O   0  0  0  0  0  0  0  0  0  0  0  0
   -7.8269    4.6727   -2.0070 C   0  0  0  0  0  2  0  0  0  0  0  0
   -6.8216    1.2956    1.4800 C   0  0  0  0  0  0  0  0  0  0  0  0
   -6.2127    0.0503    1.5993 O   0  0  0  0  0  0  0  0  0  0  0  0
   -7.4275   -1.1910   -0.4385 C   0  0  1  0  0  0  0  0  0  0  0  0
   -5.9427   -0.9327   -0.5862 C   0  0  2  0  0  0  0  0  0  0  0  0
   -5.2546   -2.2973   -0.6011 C   0  0  0  0  0  0  0  0  0  0  0  0
   -5.3639   -0.1401    0.5373 C   0  0  1  0  0  0  0  0  0  0  0  0
   -4.8356    1.1946    0.0696 C   0  0  0  0  0  3  0  0  0  0  0  0
   -4.1510    1.7677    1.1608 O   0  0  0  0  0  0  0  0  0  0  0  0
   -3.3883    0.7424    1.7113 C   0  0  0  0  0  0  0  0  0  0  0  0
   -2.4933    0.2664    0.7712 O   0  0  0  0  0  0  0  0  0  0  0  0
   -1.6353    1.2572    0.3512 C   0  0  2  0  0  0  0  0  0  0  0  0
   -2.3041    2.5048   -0.1351 C   0  0  0  0  0  2  0  0  0  0  0  0
   -0.7227    0.8057   -0.5972 O   0  0  0  0  0  0  0  0  0  0  0  0
    0.0987    1.8603   -0.9639 C   0  0  0  0  0  3  0  0  0  0  0  0
    1.5404    1.4634   -0.8923 C   0  0  2  0  0  0  0  0  0  0  0  0
    2.0880    1.0423    0.3235 O   0  0  0  0  0  0  0  0  0  0  0  0
    2.4936    2.3166   -0.2647 C   0  0  1  0  0  0  0  0  0  0  0  0
    3.8405    2.2643   -0.6170 O   0  0  0  0  0  0  0  0  0  0  0  0
    4.4873    3.1414    0.1026 O   0  0  0  0  0  0  0  0  0  0  0  0
    5.0137    2.5128    1.2269 C   0  0  0  0  0  3  0  0  0  0  0  0
    5.4582    1.1269    0.8096 C   0  0  0  0  0  3  0  0  0  0  0  0
    5.9614    1.2166   -0.6238 C   0  0  0  0  0  3  0  0  0  0  0  0
    6.2602   -0.1768   -1.1494 C   0  0  0  0  0  0  0  0  0  0  0  0
    7.3264   -0.7748   -0.2456 C   0  0  1  0  0  0  0  0  0  0  0  0
    7.5969   -2.0483   -0.7290 O   0  0  0  0  0  0  0  0  0  0  0  0
    8.5524    0.1266   -0.3695 C   0  0  0  0  0  3  0  0  0  0  0  0
    8.2209    1.5314    0.0627 C   0  0  0  0  0  3  0  0  0  0  0  0
    8.5182    2.3841   -1.0098 O   0  0  0  0  0  0  0  0  0  0  0  0
    9.7108    3.0139   -0.7436 C   0  0  2  0  0  0  0  0  0  0  0  0
   10.0635    3.9531   -1.8975 C   0  0  0  0  0  2  0  0  0  0  0  0
   10.7534    2.1043   -0.6374 O   0  0  0  0  0  0  0  0  0  0  0  0
   11.8732    2.7447   -0.3832 O   0  0  0  0  0  0  0  0  0  0  0  0
   12.3381    2.4342    0.9110 C   0  0  2  0  0  0  0  0  0  0  0  0
   13.6237    3.1712    1.1993 C   0  0  0  0  0  2  0  0  0  0  0  0
   12.6786    0.9397    0.9660 C   0  0  0  0  0  3  0  0  0  0  0  0
   13.6635    0.6275    0.0380 O   0  0  0  0  0  0  0  0  0  0  0  0
   14.5327   -0.3003    0.6502 C   0  0  2  0  0  0  0  0  0  0  0  0
   15.5569   -0.6549   -0.2492 O   0  0  0  0  0  0  0  0  0  0  0  0
   13.7200   -1.5523    0.9040 C   0  0  0  0  0  3  0  0  0  0  0  0
   14.6040   -2.5935    1.5647 C   0  0  0  0  0  3  0  0  0  0  0  0
   14.7120   -3.6711    0.6620 O   0  0  0  0  0  0  0  0  0  0  0  0
   13.5021   -4.3569    0.6584 C   0  0  0  0  0  3  0  0  0  0  0  0
   12.3307   -3.4416    0.4963 C   0  0  0  0  0  2  0  0  0  0  0  0
  1  2  1  0
  2  3  1  0
  3  4  1  0
  4  5  1  0
  5  6  1  6
  5  7  1  0
  8  7  1  1
  8  9  1  0
  9 10  1  0
 10 11  1  0
 11 12  1  1
 11 13  1  0
 14 13  1  6
 14 15  1  0
 14 16  1  0
 16 17  1  6
 18 17  1  6
 18 19  1  0
 19 20  1  0
 20 21  1  0
 21 22  1  0
 18 23  1  0
 23 24  1  0
 16 25  1  0
 25 26  1  0
  8 27  1  0
 27 28  1  0
 28 29  1  1
 28 30  1  0
 30 31  1  6
 31 32  1  0
 32 33  1  0
 33 34  1  0
 34 35  1  0
 35 36  1  6
 35 37  1  0
 37 38  1  0
 39 38  1  1
 39 40  1  0
 39 41  1  0
 41 42  1  6
 42 43  1  0
 43 44  1  0
 44 45  1  0
 45 46  1  0
 46 47  1  0
 47 48  1  0
 48 49  1  6
 48 50  1  0
 50 51  1  0
 51 52  1  0
 52 53  1  0
 53 54  1  6
 53 55  1  0
 55 56  1  0
 56 57  1  0
 57 58  1  6
 57 59  1  0
 59 60  1  0
 60 61  1  0
 61 62  1  6
 61 63  1  0
 63 64  1  0
 64 65  1  0
 65 66  1  0
 66 67  1  0
 27 15  1  1
 30 26  1  0
 41 40  1  0
M  RAD  8   3   2   7   2   9   2  17   2  21   2  22   3  24   3  31   2
M  RAD  8  36   3  38   2  44   2  45   2  46   2  50   2  51   2  54   3
M  RAD  6  58   3  59   2  63   2  64   2  66   2  67   3
M  END
$$$$
