
     RDKit          3D

 47 46  0  0  0  0  0  0  0  0999 V2000
   13.9346   -3.9140   -1.8670 O   0  0  0  0  0  0  0  0  0  0  0  0
   14.3521   -2.9613   -1.1674 C   0  0  0  0  0  0  0  0  0  0  0  0
   15.7303   -2.6887   -1.1719 O   0  0  0  0  0  0  0  0  0  0  0  0
   13.3884   -2.1596   -0.3642 C   0  0  0  0  0  0  0  0  0  0  0  0
   14.0673   -1.0753    0.3825 C   0  0  0  0  0  0  0  0  0  0  0  0
   13.7609    0.1854    0.2023 C   0  0  0  0  0  0  0  0  0  0  0  0
   12.7281    0.6365   -0.7449 C   0  0  0  0  0  0  0  0  0  0  0  0
   11.6939    1.3650   -0.0281 N   0  0  0  0  0  0  0  0  0  0  0  0
   10.6675    1.8257   -0.9262 C   0  0  0  0  0  0  0  0  0  0  0  0
    9.6430    2.5877   -0.1582 C   0  0  0  0  0  3  0  0  0  0  0  0
    8.5847    1.7581    0.3208 N   0  0  0  0  0  0  0  0  0  0  0  0
    7.6597    1.4848   -0.7848 C   0  0  0  0  0  0  0  0  0  0  0  0
    6.5424    0.6140   -0.2100 C   0  0  0  0  0  0  0  0  0  0  0  0
    7.1498   -0.6454    0.3177 C   0  0  0  0  0  0  0  0  0  0  0  0
    6.1638   -1.5606    0.9066 C   0  0  0  0  0  0  0  0  0  0  0  0
    4.8835   -1.2914    0.9564 C   0  0  0  0  0  0  0  0  0  0  0  0
    4.3621   -0.0276    0.4096 C   0  0  0  0  0  0  0  0  0  0  0  0
    3.6897    0.8270    1.4627 C   0  0  0  0  0  3  0  0  0  0  0  0
    3.1669    2.0873    0.7633 C   0  0  0  0  0  0  0  0  0  0  0  0
    2.1590    1.5845   -0.2842 C   0  0  0  0  0  0  0  0  0  0  0  0
    1.0981    0.8487    0.5534 C   0  0  0  0  0  0  0  0  0  0  0  0
    0.5471    1.9362    1.4884 C   0  0  0  0  0  0  0  0  0  0  0  0
   -0.0403    3.0008    0.5532 C   0  0  0  0  0  0  0  0  0  0  0  0
   -1.0484    2.3865   -0.1858 O   0  0  0  0  0  0  0  0  0  0  0  0
   -2.0742    1.9007    0.6190 C   0  0  2  0  0  0  0  0  0  0  0  0
   -1.5696    0.8775    1.6091 C   0  0  0  0  0  0  0  0  0  0  0  0
   -3.0301    1.1692   -0.2835 C   0  0  0  0  0  0  0  0  0  0  0  0
   -2.6617   -0.0491   -0.6338 C   0  0  0  0  0  0  0  0  0  0  0  0
   -3.4778   -0.8163   -1.4691 N   0  0  0  0  0  0  0  0  0  0  0  0
   -4.9164   -0.7241   -1.4477 C   0  0  0  0  0  0  0  0  0  0  0  0
   -5.3764    0.5881   -1.9665 C   0  0  0  0  0  0  0  0  0  0  0  0
   -6.0820    1.3575   -1.1581 C   0  0  0  0  0  0  0  0  0  0  0  0
   -6.4168    0.9674    0.2020 C   0  0  0  0  0  0  0  0  0  0  0  0
   -7.1567   -0.0800    0.4851 C   0  0  0  0  0  0  0  0  0  0  0  0
   -8.1948   -1.3044    0.7022 S   0  0  0  0  0  0  0  0  0  0  0  0
   -8.2736   -2.5711   -0.6326 C   0  0  0  0  0  3  0  0  0  0  0  0
  -10.1228   -2.9651   -0.6412 S   0  0  0  0  0  0  0  0  0  0  0  0
  -10.0957   -4.2602    0.5339 C   0  0  0  0  0  3  0  0  0  0  0  0
   -9.8948   -5.4817   -0.1352 O   0  0  0  0  0  1  0  0  0  0  0  0
  -10.8800   -1.6492   -0.1094 C   0  0  0  0  0  0  0  0  0  0  0  0
  -10.6211   -1.1372    1.1562 O   0  0  0  0  0  0  0  0  0  0  0  0
  -11.3587   -0.0095    1.4411 C   0  0  0  0  0  3  0  0  0  0  0  0
  -12.7270   -0.2272    1.3048 O   0  0  0  0  0  0  0  0  0  0  0  0
  -13.0622    0.0806   -0.0065 C   0  0  0  0  0  0  0  0  0  0  0  0
  -12.7606    1.4887   -0.3657 C   0  0  0  0  0  0  0  0  0  0  0  0
  -12.2197    2.3148    0.5445 C   0  0  0  0  0  0  0  0  0  0  0  0
  -11.9117    3.7262    0.2013 C   0  0  0  0  0  0  0  0  0  0  0  0
  1  2  2  0
  2  3  1  0
  2  4  1  0
  4  5  1  0
  5  6  2  3
  6  7  1  0
  7  8  1  0
  8  9  1  0
  9 10  1  0
 10 11  1  0
 11 12  1  0
 12 13  1  0
 13 14  1  0
 14 15  1  0
 15 16  2  3
 16 17  1  0
 17 18  1  0
 18 19  1  0
 19 20  1  0
 20 21  1  0
 21 22  1  0
 22 23  1  0
 23 24  1  0
 24 25  1  0
 25 26  1  1
 25 27  1  0
 27 28  2  3
 28 29  1  0
 29 30  1  0
 30 31  1  0
 31 32  2  3
 32 33  1  0
 33 34  2  0
 34 35  2  0
 35 36  1  0
 36 37  1  0
 37 38  1  0
 38 39  1  0
 37 40  1  0
 40 41  1  0
 41 42  1  0
 42 43  1  0
 43 44  1  0
 44 45  1  0
 45 46  2  0
 46 47  1  0
M  CHG  1  39  -1
M  RAD  5  10   2  18   2  36   2  38   2  42   2
M  END
$$$$
