
     RDKit          3D

 39 40  0  0  0  0  0  0  0  0999 V2000
   11.2442    0.1393   -0.4482 C   0  0  0  0  0  0  0  0  0  0  0  0
    9.9767    0.0671   -0.0108 C   0  0  0  0  0  0  0  0  0  0  0  0
    9.2350    1.1999    0.2169 O   0  0  0  0  0  0  0  0  0  0  0  0
    9.3931   -1.2362    0.2207 C   0  0  0  0  0  0  0  0  0  0  0  0
    8.1461   -1.3397    0.6500 C   0  0  0  0  0  0  0  0  0  0  0  0
    7.3286   -0.1380    0.9008 C   0  0  0  0  0  0  0  0  0  0  0  0
    6.0813   -0.3497    1.3347 C   0  0  0  0  0  0  0  0  0  0  0  0
    5.2874    0.9025    1.5756 C   0  0  0  0  0  0  0  0  0  0  0  0
    5.7931    1.5832    2.7561 N   0  0  0  0  0  2  0  0  0  0  0  0
    6.1804    2.9329    2.3778 C   0  0  0  0  0  0  0  0  0  0  0  0
    5.3629    1.8088    0.3659 C   0  0  0  0  0  0  0  0  0  0  0  0
    3.8852    0.5341    1.8033 C   0  0  0  0  0  0  0  0  0  0  0  0
    3.4643   -0.2069    2.8193 C   0  0  0  0  0  0  0  0  0  0  0  0
    2.0473   -0.5575    3.0168 C   0  0  0  0  0  0  0  0  0  0  0  0
    1.1701   -0.0215    2.0051 N   0  0  0  0  0  0  0  0  0  0  0  0
    1.1928   -0.4666    0.6558 C   0  0  0  0  0  0  0  0  0  0  0  0
    0.2782   -0.0880   -0.2482 C   0  0  0  0  0  0  0  0  0  0  0  0
    0.3925   -0.5988   -1.5932 C   0  0  0  0  0  0  0  0  0  0  0  0
   -0.4614   -0.2686   -2.5087 C   0  0  0  0  0  0  0  0  0  0  0  0
   -1.6270    0.6262   -2.3632 C   0  0  0  0  0  0  0  0  0  0  0  0
   -1.6641    1.1152   -0.9505 C   0  0  0  0  0  0  0  0  0  0  0  0
   -2.7223    1.2254   -0.1182 C   0  0  0  0  0  0  0  0  0  0  0  0
   -4.1514    0.8937   -0.3636 C   0  0  0  0  0  0  0  0  0  0  0  0
   -4.6480   -0.2929   -0.7606 C   0  0  0  0  0  0  0  0  0  0  0  0
   -6.1102   -0.2284   -0.8935 C   0  0  0  0  0  0  0  0  0  0  0  0
   -6.6985    1.4281   -0.4467 S   0  0  0  0  0  0  0  0  0  0  0  0
   -7.6277    2.0697   -1.8965 C   0  0  0  0  0  0  0  0  0  0  0  0
   -6.4653   -0.5609   -2.3301 C   0  0  0  0  0  0  0  0  0  0  0  0
   -6.3482    0.5546   -3.2071 N   0  0  0  0  0  0  0  0  0  0  0  0
   -6.8208    1.7229   -3.0907 C   0  0  0  0  0  0  0  0  0  0  0  0
   -6.6300    2.7373   -4.0349 O   0  0  0  0  0  0  0  0  0  0  0  0
   -2.8841   -0.1527   -2.7000 C   0  0  0  0  0  0  0  0  0  0  0  0
   -3.0011   -1.4589   -1.9949 C   0  0  0  0  0  0  0  0  0  0  0  0
   -4.1124   -1.5547   -1.0805 N   0  0  0  0  0  3  0  0  0  0  0  0
   -3.7623   -2.2641    0.1286 C   0  0  0  0  0  0  0  0  0  0  0  0
   -4.9095   -2.3846    1.0990 C   0  0  0  0  0  0  0  0  0  0  0  0
   -5.4040   -1.1913    1.5257 F   0  0  0  0  0  0  0  0  0  0  0  0
   -5.9399   -3.0719    0.4550 F   0  0  0  0  0  0  0  0  0  0  0  0
   -4.4708   -3.1090    2.2029 F   0  0  0  0  0  0  0  0  0  0  0  0
  1  2  2  0
  2  3  1  0
  2  4  1  0
  4  5  2  3
  5  6  1  0
  6  7  2  3
  7  8  1  0
  8  9  1  0
  9 10  1  0
  8 11  1  0
  8 12  1  0
 12 13  2  3
 13 14  1  0
 14 15  1  0
 15 16  1  0
 16 17  2  3
 17 18  1  0
 18 19  2  3
 19 20  1  0
 20 21  1  0
 21 22  2  3
 22 23  1  0
 23 24  2  3
 24 25  1  0
 25 26  1  0
 26 27  1  0
 25 28  1  0
 28 29  1  0
 29 30  2  0
 30 31  1  0
 20 32  1  0
 32 33  1  0
 33 34  1  0
 34 35  1  0
 35 36  1  0
 36 37  1  0
 36 38  1  0
 36 39  1  0
 34 24  1  0
 30 27  1  0
M  CHG  2   9   1  34   1
M  RAD  2   9   3  34   2
M  END
$$$$
