
     RDKit          3D

 38 40  0  0  0  0  0  0  0  0999 V2000
    8.9325    0.5966    0.7440 C   0  0  0  0  0  0  0  0  0  0  0  0
    8.6625    1.5068   -0.3938 C   0  0  0  0  0  0  0  0  0  0  0  0
    9.7973    1.6059   -1.3863 C   0  0  0  0  0  0  0  0  0  0  0  0
    7.3474    1.5134   -0.9640 C   0  0  0  0  0  0  0  0  0  0  0  0
    6.0984    1.7818   -0.5596 C   0  0  0  0  0  0  0  0  0  0  0  0
    5.1265    1.3894    0.3243 C   0  0  0  0  0  0  0  0  0  0  0  0
    5.1767    1.3637    1.7945 C   0  0  1  0  0  0  0  0  0  0  0  0
    3.7990    0.8796    2.2948 C   0  0  0  0  0  0  0  0  0  0  0  0
    6.1170    0.2414    2.2629 C   0  0  0  0  0  3  0  0  0  0  0  0
    5.8729   -0.9290    1.3158 C   0  0  0  0  0  0  0  0  0  0  0  0
    4.4781   -1.4183    1.5382 C   0  0  0  0  0  0  0  0  0  0  0  0
    3.4427   -0.3398    1.5075 C   0  0  2  0  0  0  0  0  0  0  0  0
    2.9820   -0.0464    0.1087 C   0  0  0  0  0  0  0  0  0  0  0  0
    1.7571    0.8258    0.1005 C   0  0  0  0  0  0  0  0  0  0  0  0
    0.6699    0.0557    0.8588 C   0  0  0  0  0  0  0  0  0  0  0  0
    0.4408   -1.2418    0.1249 C   0  0  0  0  0  0  0  0  0  0  0  0
   -0.0056   -0.9209   -1.2855 C   0  0  1  0  0  0  0  0  0  0  0  0
   -0.2325   -2.2279   -2.0124 C   0  0  0  0  0  0  0  0  0  0  0  0
   -0.7709   -2.0243   -3.3918 C   0  0  0  0  0  0  0  0  0  0  0  0
   -2.0816   -2.7733   -3.6013 C   0  0  0  0  0  0  0  0  0  0  0  0
   -3.0171   -2.2461   -2.7109 O   0  0  0  0  0  0  0  0  0  0  0  0
   -3.8797   -3.2577   -2.3033 C   0  0  0  0  0  0  0  0  0  0  0  0
   -3.7604   -3.5277   -0.8777 N   0  0  0  0  0  0  0  0  0  0  0  0
   -3.8703   -2.2548   -0.1940 C   0  0  2  0  0  0  0  0  0  0  0  0
   -2.3982   -1.7519   -0.0501 C   0  0  0  0  0  0  0  0  0  0  0  0
   -3.2355   -2.0519    1.1123 C   0  0  1  0  0  0  0  0  0  0  0  0
   -3.7112   -1.0212    2.0773 C   0  0  0  0  0  2  0  0  0  0  0  0
   -1.2264   -0.0675   -1.2935 C   0  0  0  0  0  0  0  0  0  0  0  0
   -2.3636   -0.4445   -0.7153 C   0  0  0  0  0  0  0  0  0  0  0  0
   -3.5153    0.4978   -0.7914 C   0  0  0  0  0  3  0  0  0  0  0  0
   -3.7280    1.1781    0.3773 O   0  0  0  0  0  0  0  0  0  0  0  0
   -4.3624    2.4018    0.2029 C   0  0  2  0  0  0  0  0  0  0  0  0
   -4.5745    3.1137    1.5200 C   0  0  0  0  0  0  0  0  0  0  0  0
   -5.7353    2.2089   -0.4248 C   0  0  0  0  0  0  0  0  0  0  0  0
   -6.4999    1.3724    0.4821 N   0  0  0  0  0  0  0  0  0  0  0  0
   -6.5091   -0.0684    0.3948 C   0  0  0  0  0  0  0  0  0  0  0  0
   -7.2613    2.0317    1.4873 C   0  0  0  0  0  0  0  0  0  0  0  0
   -7.9616    1.3939    2.3267 O   0  0  0  0  0  0  0  0  0  0  0  0
  1  2  1  0
  2  3  1  0
  2  4  1  0
  4  5  1  0
  5  6  1  0
  7  6  1  6
  7  8  1  0
  7  9  1  0
  9 10  1  0
 10 11  1  0
 11 12  1  0
 12 13  1  6
 13 14  1  0
 14 15  1  0
 15 16  1  0
 17 16  1  1
 17 18  1  0
 18 19  1  0
 19 20  1  0
 20 21  1  0
 21 22  1  0
 22 23  1  0
 24 23  1  6
 24 25  1  0
 25 26  1  0
 26 27  1  1
 17 28  1  0
 28 29  2  3
 29 30  1  0
 30 31  1  0
 31 32  1  0
 32 33  1  1
 32 34  1  0
 34 35  1  0
 35 36  1  0
 35 37  1  0
 37 38  2  0
 12  8  1  0
 26 24  1  0
 29 25  1  0
M  RAD  3   9   2  27   3  30   2
M  END
$$$$
