
     RDKit          3D

 21 20  0  0  0  0  0  0  0  0999 V2000
   -7.1026    3.5056    0.0366 C   0  0  0  0  0  0  0  0  0  0  0  0
   -6.1275    2.6375   -0.7488 C   0  0  2  0  0  0  0  0  0  0  0  0
   -6.4808    0.9038   -0.5692 S   0  0  0  0  0  0  0  0  0  0  0  0
   -5.2411    0.0867    0.0623 C   0  0  0  0  0  0  0  0  0  0  0  0
   -5.4375   -1.3822    0.2545 C   0  0  0  0  0  3  0  0  0  0  0  0
   -3.8606   -2.1169    0.6142 S   0  0  0  0  0  0  0  0  0  0  0  0
   -3.5753   -3.2259   -0.4677 N   0  0  0  0  0  3  0  0  0  0  0  0
   -2.0653   -4.1004   -0.3243 S   0  0  0  0  0  0  0  0  0  0  0  0
   -0.7951   -2.9052   -0.0549 N   0  0  0  0  0  0  0  0  0  0  0  0
   -0.2418   -2.6524   -1.2784 O   0  0  0  0  0  0  0  0  0  0  0  0
    1.4210   -3.1201   -1.1637 S   0  0  0  0  0  0  0  0  0  0  0  0
    2.3953   -2.2416   -0.2246 C   0  0  0  0  0  0  0  0  0  0  0  0
    3.1652   -1.3510    0.3784 C   0  0  0  0  0  0  0  0  0  0  0  0
    2.9267    0.0772    0.2587 C   0  0  0  0  0  0  0  0  0  0  0  0
    3.8989    0.8455   -0.1828 C   0  0  0  0  0  0  0  0  0  0  0  0
    5.4654    0.1499   -0.6215 S   0  0  0  0  0  0  0  0  0  0  0  0
    6.9986    1.3020    0.2872 S   0  0  0  0  0  0  0  0  0  0  0  0
    7.4370    2.5553   -0.8136 O   0  0  0  0  0  0  0  0  0  0  0  0
    6.8694    4.0744   -0.2488 S   0  0  0  0  0  0  0  0  0  0  0  0
    5.1748    4.0392   -0.1065 O   0  0  0  0  0  0  0  0  0  0  0  0
   -4.8247    2.9186   -0.3873 F   0  0  0  0  0  0  0  0  0  0  0  0
  2  1  1  1
  2  3  1  0
  3  4  2  3
  4  5  1  0
  5  6  1  0
  6  7  2  3
  7  8  1  0
  8  9  1  0
  9 10  1  0
 10 11  1  0
 11 12  2  0
 12 13  2  0
 13 14  1  0
 14 15  2  3
 15 16  1  0
 16 17  1  0
 17 18  1  0
 18 19  1  0
 19 20  1  0
  2 21  1  0
M  CHG  1   7   1
M  RAD  2   5   2   7   2
M  END
$$$$
