
     RDKit          3D

  9  8  0  0  0  0  0  0  0  0999 V2000
    3.0525    0.2033    1.4584 C   0  0  0  0  0  0  0  0  0  0  0  0
    3.0844    0.0751    0.0843 O   0  0  0  0  0  0  0  0  0  0  0  0
    1.8387    0.0457   -0.5116 C   0  0  0  0  0  3  0  0  0  0  0  0
    0.7879    0.0448    0.3944 O   0  0  0  0  0  0  0  0  0  0  0  0
   -0.4096   -0.2455   -0.4391 C   0  0  2  0  0  0  0  0  0  0  0  0
   -0.7279    1.1323   -1.0841 C   0  0  0  0  0  0  0  0  0  0  0  0
   -1.4514   -0.4043    0.5951 C   0  0  0  0  0  0  0  0  0  0  0  0
   -2.7933   -0.3413    0.3630 C   0  0  0  0  0  0  0  0  0  0  0  0
   -3.3813   -0.1136   -0.8604 O   0  0  0  0  0  0  0  0  0  0  0  0
  1  2  1  0
  2  3  1  0
  3  4  1  0
  4  5  1  0
  5  6  1  6
  5  7  1  0
  7  8  2  3
  8  9  1  0
M  RAD  1   3   2
M  END
$$$$
