
     RDKit          3D

 17 16  0  0  0  0  0  0  0  0999 V2000
   -5.1109   -1.7165   -1.7720 C   0  0  0  0  0  0  0  0  0  0  0  0
   -4.4991   -0.7252   -0.8252 C   0  0  0  0  0  0  0  0  0  0  0  0
   -4.5124   -0.9799    0.3831 O   0  0  0  0  0  0  0  0  0  0  0  0
   -3.9388    0.4427   -1.3251 N   0  0  0  0  0  0  0  0  0  0  0  0
   -3.3158    1.4771   -0.6343 C   0  0  0  0  0  0  0  0  0  0  0  0
   -2.0796    1.1647    0.0703 C   0  0  0  0  0  0  0  0  0  0  0  0
   -2.1780    0.1498    1.1057 C   0  0  0  0  0  0  0  0  0  0  0  0
   -1.4675   -0.9741    1.1864 C   0  0  0  0  0  0  0  0  0  0  0  0
   -0.4472   -1.2689    0.1216 C   0  0  0  0  0  0  0  0  0  0  0  0
    0.9208   -1.3935    0.7794 C   0  0  0  0  0  0  0  0  0  0  0  0
    1.3066   -0.1325    1.4848 C   0  0  0  0  0  0  0  0  0  0  0  0
    1.3826    1.0664    0.5701 C   0  0  0  0  0  0  0  0  0  0  0  0
    2.3878    0.8000   -0.4662 N   0  0  0  0  0  0  0  0  0  0  0  0
    3.7137    0.7654    0.1508 C   0  0  0  0  0  0  0  0  0  0  0  0
    4.7002    0.4970   -0.9252 C   0  0  0  0  0  0  0  0  0  0  0  0
    5.9590    0.2702   -0.6669 C   0  0  0  0  0  0  0  0  0  0  0  0
    7.1788    0.5573   -0.5919 O   0  0  0  0  0  0  0  0  0  0  0  0
  1  2  1  0
  2  3  2  0
  2  4  1  0
  4  5  1  0
  5  6  1  0
  6  7  1  0
  7  8  2  3
  8  9  1  0
  9 10  1  0
 10 11  1  0
 11 12  1  0
 12 13  1  0
 13 14  1  0
 14 15  1  0
 15 16  2  0
 16 17  2  0
M  END
$$$$
