
     RDKit          3D

 33 34  0  0  0  0  0  0  0  0999 V2000
    5.6595    4.1205   -2.6049 C   0  0  0  0  0  0  0  0  0  0  0  0
    6.1196    3.0789   -1.6387 C   0  0  0  0  0  0  0  0  0  0  0  0
    6.7193    2.0329   -2.1200 N   0  0  0  0  0  0  0  0  0  0  0  0
    7.1877    0.9984   -1.2823 C   0  0  0  0  0  0  0  0  0  0  0  0
    8.3593    0.5803   -1.3572 O   0  0  0  0  0  0  0  0  0  0  0  0
    6.2892    0.4098   -0.3156 C   0  0  0  0  0  0  0  0  0  0  0  0
    5.0571    0.9436   -0.3313 C   0  0  0  0  0  0  0  0  0  0  0  0
    3.8309    0.7108    0.4172 C   0  0  0  0  0  0  0  0  0  0  0  0
    2.7416    1.6221   -0.0046 C   0  0  0  0  0  0  0  0  0  0  0  0
    1.5757    1.3231    0.7738 N   0  0  0  0  0  0  0  0  0  0  0  0
    1.5570    1.6059    2.1795 C   0  0  0  0  0  0  0  0  0  0  0  0
    0.4516    0.7519    0.1512 C   0  0  0  0  0  0  0  0  0  0  0  0
   -0.6254    0.3971    0.8178 C   0  0  0  0  0  0  0  0  0  0  0  0
   -1.3900    0.2509    1.9859 C   0  0  0  0  0  0  0  0  0  0  0  0
   -1.9636   -0.1747    0.7945 C   0  0  0  0  0  0  0  0  0  0  0  0
   -3.1235   -0.7635    0.1643 C   0  0  0  0  0  0  0  0  0  0  0  0
   -3.0982   -0.9433   -1.0799 O   0  0  0  0  0  0  0  0  0  0  0  0
   -4.2601   -1.1323    0.9090 N   0  0  0  0  0  0  0  0  0  0  0  0
   -5.4278   -1.7197    0.3215 C   0  0  1  0  0  0  0  0  0  0  0  0
   -6.0256   -0.7185   -0.6492 C   0  0  0  0  0  0  0  0  0  0  0  0
   -6.3812    0.5222    0.1366 C   0  0  0  0  0  0  0  0  0  0  0  0
   -7.3840    0.1330    1.2030 C   0  0  0  0  0  0  0  0  0  0  0  0
   -8.5971   -0.4320    0.4949 C   0  0  0  0  0  0  0  0  0  0  0  0
   -9.1695    0.5994   -0.4042 C   0  0  0  0  0  0  0  0  0  0  0  0
   -8.6756    1.7102   -0.4948 O   0  0  0  0  0  0  0  0  0  0  0  0
   -5.1059   -2.9942   -0.3271 C   0  0  0  0  0  0  0  0  0  0  0  0
   -3.9675   -3.4102   -0.3205 O   0  0  0  0  0  0  0  0  0  0  0  0
   -6.3748   -3.9503   -1.1325 S   0  0  0  0  0  0  0  0  0  0  0  0
    3.5000   -0.1009    1.3474 C   0  0  0  0  0  0  0  0  0  0  0  0
    3.9545   -1.3016    1.5084 C   0  0  0  0  0  0  0  0  0  0  0  0
    5.2858   -1.7376    1.8310 N   0  0  0  0  0  0  0  0  0  0  0  0
    6.4424   -1.7890    1.0983 N   0  0  0  0  0  0  0  0  0  0  0  0
    6.8387   -0.6233    0.4883 N   0  0  0  0  0  0  0  0  0  0  0  0
  1  2  1  0
  2  3  2  3
  3  4  1  0
  4  5  2  0
  4  6  1  0
  6  7  2  3
  7  8  1  0
  8  9  1  0
  9 10  1  0
 10 11  1  0
 10 12  1  0
 12 13  2  3
 13 14  1  0
 14 15  2  0
 15 16  1  0
 16 17  2  0
 16 18  1  0
 18 19  1  0
 19 20  1  6
 20 21  1  0
 21 22  1  0
 22 23  1  0
 23 24  1  0
 24 25  2  0
 19 26  1  0
 26 27  2  0
 26 28  1  0
  8 29  2  0
 29 30  2  0
 30 31  1  0
 31 32  1  0
 32 33  1  0
 33  6  1  0
 15 13  1  0
M  END
$$$$
