
     RDKit          3D

 50 50  0  0  0  0  0  0  0  0999 V2000
    3.0376    1.3918    2.2342 C   0  0  0  0  0  0  0  0  0  0  0  0
    3.0274    1.3317    0.6615 C   0  0  2  0  0  0  0  0  0  0  0  0
    4.1011    2.2543    0.1728 C   0  0  0  0  0  0  0  0  0  0  0  0
    4.1195    2.1256   -1.3722 C   0  0  0  0  0  0  0  0  0  0  0  0
    4.2727    0.6771   -1.5977 C   0  0  0  0  0  0  0  0  0  0  0  0
    3.2454   -0.0402   -1.6154 O   0  0  0  0  0  0  0  0  0  0  0  0
    5.5863    0.1090   -1.7938 N   0  0  0  0  0  0  0  0  0  0  0  0
    5.8062   -1.0187   -1.2172 C   0  0  0  0  0  0  0  0  0  0  0  0
    4.7082   -1.6459   -0.4111 C   0  0  0  0  0  0  0  0  0  0  0  0
    7.0811   -1.8097   -1.2282 C   0  0  2  0  0  0  0  0  0  0  0  0
    6.7509   -3.1633   -1.8563 C   0  0  0  0  0  0  0  0  0  0  0  0
    7.5004   -1.9840    0.2041 C   0  0  0  0  0  0  0  0  0  0  0  0
    7.9654   -0.7684    0.9570 C   0  0  0  0  0  0  0  0  0  0  0  0
    9.1535   -0.1787    0.1743 C   0  0  0  0  0  0  0  0  0  0  0  0
    9.6565    1.0623    0.8930 C   0  0  0  0  0  0  0  0  0  0  0  0
    7.4835   -3.1382    0.7899 C   0  0  0  0  0  0  0  0  0  0  0  0
    6.9201   -4.7201   -0.1061 Br  0  0  0  0  0  0  0  0  0  0  0  0
    7.9218   -3.2802    2.2044 C   0  0  0  0  0  0  0  0  0  0  0  0
    8.3995   -2.0978    2.9444 C   0  0  0  0  0  0  0  0  0  0  0  0
    8.5004   -2.4413    4.4462 C   0  0  0  0  0  0  0  0  0  0  0  0
    7.1120   -2.7785    4.8178 C   0  0  0  0  0  0  0  0  0  0  0  0
    5.9763   -3.0401    5.1364 N   0  0  0  0  0  0  0  0  0  0  0  0
    7.8799   -4.4360    2.8217 C   0  0  0  0  0  0  0  0  0  0  0  0
    7.3142   -5.9697    2.1229 S   0  0  0  0  0  0  0  0  0  0  0  0
    8.5985   -6.8905    1.2618 C   0  0  0  0  0  0  0  0  0  0  0  0
    1.6491    1.8547    0.2701 C   0  0  0  0  0  0  0  0  0  0  0  0
    0.7675    2.0222    1.2194 C   0  0  0  0  0  0  0  0  0  0  0  0
   -0.5955    2.5032    1.0431 C   0  0  0  0  0  0  0  0  0  0  0  0
   -1.5657    1.3577    1.2511 C   0  0  0  0  0  0  0  0  0  0  0  0
   -2.6091    1.1782    0.5221 C   0  0  0  0  0  0  0  0  0  0  0  0
   -2.9808    2.0880   -0.5981 C   0  0  0  0  0  0  0  0  0  0  0  0
   -4.4115    2.5938   -0.3079 C   0  0  0  0  0  0  0  0  0  0  0  0
   -5.0251    2.0565    0.7453 C   0  0  0  0  0  0  0  0  0  0  0  0
   -6.4291    2.5134    1.0800 C   0  0  0  0  0  2  0  0  0  0  0  0
   -7.2605    1.3615    1.6124 C   0  0  0  0  0  0  0  0  0  0  0  0
   -8.7094    1.5964    1.1541 C   0  0  0  0  0  0  0  0  0  0  0  0
   -8.6407    1.6971   -0.3712 C   0  0  0  0  0  0  0  0  0  0  0  0
   -9.5475    0.9729   -0.9888 C   0  0  0  0  0  0  0  0  0  0  0  0
  -10.5378    0.1399   -0.3384 C   0  0  0  0  0  0  0  0  0  0  0  0
  -11.4281   -0.5729   -1.0170 C   0  0  0  0  0  0  0  0  0  0  0  0
  -11.5015   -0.5920   -2.4506 C   0  0  0  0  0  0  0  0  0  0  0  0
  -12.8275   -0.5857   -3.1154 C   0  0  0  0  0  0  0  0  0  0  0  0
  -10.4190   -0.6071   -3.1733 C   0  0  0  0  0  0  0  0  0  0  0  0
   -9.2673   -0.4520   -3.7684 C   0  0  0  0  0  0  0  0  0  0  0  0
   -8.0800   -0.2329   -4.2761 C   0  0  0  0  0  0  0  0  0  0  0  0
   -6.8766   -0.5091   -3.4362 C   0  0  0  0  0  0  0  0  0  0  0  0
   -4.9558    3.5577   -1.1296 C   0  0  0  0  0  0  0  0  0  0  0  0
   -5.9625    3.9075   -1.7758 C   0  0  0  0  0  0  0  0  0  0  0  0
   -7.2558    3.1879   -1.8963 C   0  0  0  0  0  0  0  0  0  0  0  0
   -7.6481    2.5163   -0.8988 C   0  0  0  0  0  0  0  0  0  0  0  0
  2  1  1  1
  2  3  1  0
  3  4  1  0
  4  5  1  0
  5  6  2  0
  5  7  1  0
  7  8  2  3
  8  9  1  0
  8 10  1  0
 10 11  1  1
 10 12  1  0
 12 13  1  0
 13 14  1  0
 14 15  1  0
 12 16  2  3
 16 17  1  0
 16 18  1  0
 18 19  1  0
 19 20  1  0
 20 21  1  0
 21 22  3  0
 18 23  2  3
 23 24  1  0
 24 25  1  0
  2 26  1  0
 26 27  2  3
 27 28  1  0
 28 29  1  0
 29 30  2  3
 30 31  1  0
 31 32  1  0
 32 33  2  3
 33 34  1  0
 34 35  1  0
 35 36  1  0
 36 37  1  0
 37 38  2  3
 38 39  1  0
 39 40  2  3
 40 41  1  0
 41 42  1  0
 41 43  2  0
 43 44  2  0
 44 45  2  0
 45 46  1  0
 32 47  1  0
 47 48  2  3
 48 49  1  0
 49 50  2  3
 50 37  1  0
M  RAD  1  34   3
M  END
$$$$
