
     RDKit          3D

 30 33  0  0  0  0  0  0  0  0999 V2000
   -2.6250   -0.3818    0.5533 C   0  0  0  0  0  0  0  0  0  0  0  0
   -1.5715   -0.7741   -0.3307 O   0  0  0  0  0  0  0  0  0  0  0  0
   -1.3193   -2.0647   -0.6647 C   0  0  0  0  0  0  0  0  0  0  0  0
   -0.1303   -2.5777   -0.7331 C   0  0  0  0  0  0  0  0  0  0  0  0
    1.0906   -2.0127   -0.5083 C   0  0  0  0  0  0  0  0  0  0  0  0
    2.3481   -2.2705   -0.4029 C   0  0  0  0  0  0  0  0  0  0  0  0
    3.3615   -1.2585   -0.1347 C   0  0  0  0  0  0  0  0  0  0  0  0
    3.1576   -0.2452    1.0173 C   0  0  0  0  0  0  0  0  0  0  0  0
    4.4198   -1.1431   -0.8900 C   0  0  0  0  0  0  0  0  0  0  0  0
    5.1788    0.1207   -1.2132 C   0  0  0  0  0  0  0  0  0  0  0  0
    4.6014    1.3300   -1.2284 C   0  0  0  0  0  0  0  0  0  0  0  0
    5.2578    2.4248   -1.9821 C   0  0  0  0  0  0  0  0  0  0  0  0
    3.3073    1.7041   -0.5350 C   0  0  0  0  0  0  0  0  0  0  0  0
    2.5592    0.8787    0.1481 C   0  0  0  0  0  0  0  0  0  0  0  0
    1.1069    0.9457    0.0014 C   0  0  0  0  0  0  0  0  0  0  0  0
    0.3847    0.6620    1.1706 C   0  0  0  0  0  0  0  0  0  0  0  0
   -0.3309   -0.0259    1.8526 C   0  0  0  0  0  0  0  0  0  0  0  0
   -1.0271   -1.1906    1.9362 O   0  0  0  0  0  0  0  0  0  0  0  0
   -2.4578   -1.3340    1.6598 C   0  0  0  0  0  0  0  0  0  0  0  0
   -3.2677   -1.0156    2.8731 C   0  0  0  0  0  0  0  0  0  0  0  0
   -2.9560    0.3261    3.4839 C   0  0  0  0  0  0  0  0  0  0  0  0
    0.6618    1.2683   -1.2281 C   0  0  0  0  0  0  0  0  0  0  0  0
   -0.6730    1.3742   -1.6041 N   0  0  0  0  0  0  0  0  0  0  0  0
   -1.7296    1.7234   -1.1290 C   0  0  0  0  0  0  0  0  0  0  0  0
   -1.8376    2.3308    0.5292 S   0  0  0  0  0  0  0  0  0  0  0  0
   -2.3602    0.9428    1.2659 C   0  0  0  0  0  0  0  0  0  0  0  0
   -3.0220    1.4554   -1.8484 C   0  0  0  0  0  0  0  0  0  0  0  0
   -3.4930    0.1877   -1.5564 O   0  0  0  0  0  0  0  0  0  0  0  0
   -3.7903   -0.1474   -0.2529 C   0  0  0  0  0  0  0  0  0  0  0  0
   -4.8439   -1.2332   -0.2494 C   0  0  0  0  0  0  0  0  0  0  0  0
  1  2  1  0
  2  3  1  0
  3  4  2  3
  4  5  1  0
  5  6  2  3
  6  7  1  0
  7  8  1  0
  7  9  2  0
  9 10  1  0
 10 11  2  0
 11 12  1  0
 11 13  1  0
 13 14  2  0
 14 15  1  0
 15 16  1  0
 16 17  2  3
 17 18  1  0
 18 19  1  0
 19 20  1  0
 20 21  1  0
 15 22  2  3
 22 23  1  0
 23 24  2  3
 24 25  1  0
 25 26  2  0
 24 27  1  0
 27 28  1  0
 28 29  1  0
 29 30  1  0
 19  1  1  0
 26  1  1  0
 29  1  1  0
 14  8  1  0
M  END
$$$$
