
     RDKit          3D

 39 40  0  0  0  0  0  0  0  0999 V2000
   -5.8896    0.7433   -1.3095 C   0  0  0  0  0  0  0  0  0  0  0  0
   -5.0648    1.4986   -0.3081 C   0  0  0  0  0  0  0  0  0  0  0  0
   -3.9269    2.1721   -1.0455 C   0  0  0  0  0  0  0  0  0  0  0  0
   -4.4309    0.5597    0.7134 C   0  0  0  0  0  0  0  0  0  0  0  0
   -3.7149    1.2975    1.7895 C   0  0  0  0  0  0  0  0  0  0  0  0
   -3.1037    2.5866    1.3460 C   0  0  0  0  0  0  0  0  0  0  0  0
   -1.6804    2.4229    0.8550 C   0  0  1  0  0  0  0  0  0  0  0  0
   -1.1954    3.7690    0.3537 C   0  0  0  0  0  0  0  0  0  0  0  0
   -0.7654    1.9891    1.9886 C   0  0  0  0  0  3  0  0  0  0  0  0
   -0.8366    0.5186    2.2515 C   0  0  0  0  0  0  0  0  0  0  0  0
    0.4837   -0.0113    2.7124 C   0  0  0  0  0  0  0  0  0  0  0  0
    1.2438   -0.7378    1.6307 C   0  0  2  0  0  0  0  0  0  0  0  0
    1.8356    0.2189    0.6213 C   0  0  0  0  0  3  0  0  0  0  0  0
    2.5754   -0.5997   -0.4185 C   0  0  0  0  0  3  0  0  0  0  0  0
    3.6768    0.2421   -0.9894 C   0  0  0  0  0  0  0  0  0  0  0  0
    4.5980    0.6274    0.1478 C   0  0  1  0  0  0  0  0  0  0  0  0
    5.1231   -0.5931    0.7311 N   0  0  0  0  0  1  0  0  0  0  0  0
    5.7582    1.4474   -0.3752 C   0  0  0  0  0  3  0  0  0  0  0  0
    6.5023    0.6435   -1.3585 C   0  0  0  0  0  0  0  0  0  0  0  0
    7.1169    0.0081   -2.1502 C   0  0  0  0  0  0  0  0  0  0  0  0
    7.8857   -0.7737   -3.1193 C   0  0  0  0  0  0  0  0  0  0  0  0
    9.3609   -0.7255   -2.8028 C   0  0  0  0  0  0  0  0  0  0  0  0
    9.5384   -1.3050   -1.4142 C   0  0  0  0  0  0  0  0  0  0  0  0
   11.0135   -1.2940   -1.0124 C   0  0  0  0  0  0  0  0  0  0  0  0
   11.7606   -2.1364   -2.0277 C   0  0  0  0  0  2  0  0  0  0  0  0
    0.4173   -1.8077    0.9585 C   0  0  0  0  0  0  0  0  0  0  0  0
    0.4533   -1.6674   -0.5582 C   0  0  0  0  0  0  0  0  0  0  0  0
   -0.2927   -0.3999   -0.9936 C   0  0  0  0  0  3  0  0  0  0  0  0
   -1.5869   -0.8990   -1.6487 C   0  0  0  0  0  0  0  0  0  0  0  0
   -2.1987   -1.8349   -0.6559 C   0  0  0  0  0  0  0  0  0  0  0  0
   -3.0814   -1.3235    0.1744 C   0  0  0  0  0  0  0  0  0  0  0  0
   -3.7628   -2.1027    1.1951 C   0  0  0  0  0  0  0  0  0  0  0  0
   -4.8988   -1.6655    1.6923 C   0  0  0  0  0  3  0  0  0  0  0  0
   -5.4600   -0.4064    1.2143 C   0  0  1  0  0  0  0  0  0  0  0  0
   -6.4494    0.2158    2.1629 C   0  0  0  0  0  0  0  0  0  0  0  0
   -7.2819    1.2668    1.5037 C   0  0  0  0  0  0  0  0  0  0  0  0
   -8.2935    0.7105    0.5293 C   0  0  0  0  0  0  0  0  0  0  0  0
   -8.2323    1.3460   -0.7897 C   0  0  0  0  0  0  0  0  0  0  0  0
   -7.1962    1.3660   -1.5941 C   0  0  0  0  0  0  0  0  0  0  0  0
  1  2  1  0
  2  3  1  0
  2  4  1  0
  4  5  1  0
  5  6  1  0
  6  7  1  0
  7  8  1  1
  7  9  1  0
  9 10  1  0
 10 11  1  0
 11 12  1  0
 12 13  1  6
 13 14  1  0
 14 15  1  0
 15 16  1  0
 16 17  1  6
 16 18  1  0
 18 19  1  0
 19 20  3  0
 20 21  1  0
 21 22  1  0
 22 23  1  0
 23 24  1  0
 24 25  1  0
 12 26  1  0
 26 27  1  0
 27 28  1  0
 28 29  1  0
 29 30  1  0
 30 31  2  3
 31 32  1  0
 32 33  2  3
 33 34  1  0
 34 35  1  1
 35 36  1  0
 36 37  1  0
 37 38  1  0
 38 39  2  3
 39  1  1  0
 34  4  1  0
M  RAD  8   9   2  13   2  14   2  17   2  18   2  25   3  28   2  33   2
M  CHG  1  17   1
M  END
$$$$
