
     RDKit          3D

  4  3  0  0  0  0  0  0  0  0999 V2000
   -1.4973   -0.4921    0.0979 F   0  0  0  0  0  0  0  0  0  0  0  0
   -0.6471    0.5343   -0.2697 C   0  0  0  0  0  0  0  0  0  0  0  0
    0.6396    0.3788    0.3309 N   0  0  0  0  0  0  0  0  0  0  0  0
    1.5047   -0.4209   -0.1592 C   0  0  0  0  0  0  0  0  0  0  0  0
  1  2  1  0
  2  3  1  0
  3  4  2  0
M  END
$$$$
