
     RDKit          3D

 25 25  0  0  0  0  0  0  0  0999 V2000
   -3.3151   -1.0660    0.0313 C   0  0  0  0  0  0  0  0  0  0  0  0
   -4.6555   -1.0314   -0.4181 O   0  0  0  0  0  0  0  0  0  0  0  0
   -5.4799   -0.6238    0.6650 C   0  0  0  0  0  3  0  0  0  0  0  0
   -4.7513    0.2772    1.4593 O   0  0  0  0  0  0  0  0  0  0  0  0
   -4.3150    1.3586    0.7376 C   0  0  2  0  0  0  0  0  0  0  0  0
   -5.2088    1.6947   -0.4430 C   0  0  0  0  0  0  0  0  0  0  0  0
   -4.6653    2.7939   -1.0834 O   0  0  0  0  0  0  0  0  0  0  0  0
   -2.8982    1.1882    0.3078 C   0  0  1  0  0  0  0  0  0  0  0  0
   -1.8748    1.4518    1.3532 C   0  0  0  0  0  3  0  0  0  0  0  0
   -0.4894    1.2787    0.8207 C   0  0  0  0  0  0  0  0  0  0  0  0
   -0.1679   -0.1209    0.3687 C   0  0  2  0  0  0  0  0  0  0  0  0
   -0.3165   -1.2953    1.7444 S   0  0  0  0  0  0  0  0  0  0  0  0
    0.5869   -0.8808    2.9062 O   0  0  0  0  0  0  0  0  0  0  0  0
    1.2305   -0.2100   -0.1422 C   0  0  1  0  0  0  0  0  0  0  0  0
    1.4924    0.6096   -1.2167 O   0  0  0  0  0  0  0  0  0  0  0  0
    2.7719    0.4090   -1.5448 O   0  0  0  0  0  0  0  0  0  0  0  0
    2.9656    1.0856   -2.7533 C   0  0  0  0  0  3  0  0  0  0  0  0
    3.2236    0.2387   -3.8075 O   0  0  0  0  0  0  0  0  0  0  0  0
    2.4829   -0.1816    1.1340 S   0  0  0  0  0  0  0  0  0  0  0  0
    4.0276   -0.2926    0.3685 O   0  0  0  0  0  0  0  0  0  0  0  0
    4.1239   -1.6063   -0.1338 C   0  0  0  0  0  3  0  0  0  0  0  0
    5.2937   -1.7972   -0.8561 O   0  0  0  0  0  0  0  0  0  0  0  0
    6.3491   -1.1326   -0.2359 C   0  0  0  0  0  3  0  0  0  0  0  0
    6.2573   -1.3255    1.1494 O   0  0  0  0  0  0  0  0  0  0  0  0
   -2.6677    0.0664   -0.4114 O   0  0  0  0  0  0  0  0  0  0  0  0
  1  2  1  0
  2  3  1  0
  3  4  1  0
  4  5  1  0
  5  6  1  6
  6  7  1  0
  5  8  1  0
  8  9  1  1
  9 10  1  0
 11 10  1  1
 11 12  1  0
 12 13  2  0
 11 14  1  0
 14 15  1  6
 15 16  1  0
 16 17  1  0
 17 18  1  0
 14 19  1  0
 19 20  1  0
 20 21  1  0
 21 22  1  0
 22 23  1  0
 23 24  1  0
  8 25  1  0
 25  1  1  0
M  RAD  5   3   2   9   2  17   2  21   2  23   2
M  END
$$$$
