
     RDKit          3D

 31 30  0  0  0  0  0  0  0  0999 V2000
    7.5468    2.4938   -0.6901 C   0  0  0  0  0  0  0  0  0  0  0  0
    8.7997    3.1682   -1.1338 C   0  0  0  0  0  0  0  0  0  0  0  0
    9.8737    2.1758   -1.4131 C   0  0  0  0  0  0  0  0  0  0  0  0
    9.5250    1.2092   -2.4705 C   0  0  0  0  0  0  0  0  0  0  0  0
    8.3430    0.3672   -2.1151 C   0  0  0  0  0  0  0  0  0  0  0  0
    8.6613   -0.4196   -0.8680 C   0  0  0  0  0  0  0  0  0  0  0  0
    7.5373   -1.3340   -0.4739 C   0  0  0  0  0  0  0  0  0  0  0  0
    6.2935   -0.5481   -0.2095 C   0  0  0  0  0  0  0  0  0  0  0  0
    5.1581   -1.4048    0.1821 C   0  0  0  0  0  0  0  0  0  0  0  0
    4.6030   -1.1955    1.3776 C   0  0  0  0  0  0  0  0  0  0  0  0
    3.4527   -2.0779    1.7515 C   0  0  0  0  0  3  0  0  0  0  0  0
    2.3842   -1.8547    0.6938 C   0  0  0  0  0  0  0  0  0  0  0  0
    1.9595   -0.4004    0.6753 C   0  0  0  0  0  0  0  0  0  0  0  0
    1.4111   -0.0762    2.0501 C   0  0  0  0  0  0  0  0  0  0  0  0
    0.2236   -0.9461    2.3964 C   0  0  0  0  0  0  0  0  0  0  0  0
   -0.8259   -0.6924    1.3690 C   0  0  0  0  0  0  0  0  0  0  0  0
   -0.6533    0.1277    0.4139 O   0  0  0  0  0  0  0  0  0  0  0  0
   -2.0945   -1.3709    1.4121 N   0  0  0  0  0  0  0  0  0  0  0  0
   -3.1065   -1.1431    0.4434 C   0  0  0  0  0  0  0  0  0  0  0  0
   -2.8289   -0.3126   -0.4557 O   0  0  0  0  0  0  0  0  0  0  0  0
   -4.6328   -1.9547    0.4888 S   0  0  0  0  0  0  0  0  0  0  0  0
   -4.0417   -3.5117   -0.6402 C   0  0  0  0  0  0  0  0  0  0  0  0
   -5.2558   -2.3662    1.4662 O   0  0  0  0  0  0  0  0  0  0  0  0
   -5.5270   -1.1399   -0.9761 C   0  0  0  0  0  0  0  0  0  0  0  0
   -5.5415    0.2965   -0.5844 C   0  0  0  0  0  0  0  0  0  0  0  0
   -6.4178    1.0629   -1.1895 C   0  0  0  0  0  0  0  0  0  0  0  0
   -7.3828    1.7299   -1.7132 N   0  0  0  0  0  0  0  0  0  0  0  0
   -8.7507    1.4069   -1.2882 C   0  0  0  0  0  0  0  0  0  0  0  0
   -9.3729    2.7554   -0.9025 C   0  0  0  0  0  0  0  0  0  0  0  0
   -8.5638    3.3921    0.2344 C   0  0  0  0  0  0  0  0  0  0  0  0
  -10.7766    2.5631   -0.3648 C   0  0  0  0  0  0  0  0  0  0  0  0
  1  2  1  0
  2  3  1  0
  3  4  1  0
  4  5  1  0
  5  6  1  0
  6  7  1  0
  7  8  1  0
  8  9  1  0
  9 10  2  3
 10 11  1  0
 11 12  1  0
 12 13  1  0
 13 14  1  0
 14 15  1  0
 15 16  1  0
 16 17  2  0
 16 18  1  0
 18 19  1  0
 19 20  2  0
 19 21  1  0
 21 22  1  0
 21 23  1  0
 21 24  1  0
 24 25  1  0
 25 26  2  0
 26 27  2  0
 27 28  1  0
 28 29  1  0
 29 30  1  0
 29 31  1  0
M  RAD  1  11   2
M  END
$$$$
