
     RDKit          3D

 63 66  0  0  0  0  0  0  0  0999 V2000
    9.8492   -0.5154   -0.6047 C   0  0  0  0  0  0  0  0  0  0  0  0
    9.5757    0.3220    0.6238 C   0  0  1  0  0  0  0  0  0  0  0  0
   10.3823    1.6052    0.5419 C   0  0  0  0  0  0  0  0  0  0  0  0
    9.8950    2.5193   -0.5497 C   0  0  2  0  0  0  0  0  0  0  0  0
   10.5319    3.7630   -0.3344 O   0  0  0  0  0  0  0  0  0  0  0  0
    8.4059    2.7829   -0.4848 C   0  0  2  0  0  0  0  0  0  0  0  0
    8.0581    3.4817    0.6873 O   0  0  0  0  0  0  0  0  0  0  0  0
    7.6456    1.4641   -0.4409 C   0  0  1  0  0  0  0  0  0  0  0  0
    7.8953    0.7719   -1.6295 O   0  0  0  0  0  0  0  0  0  0  0  0
    8.1392    0.7129    0.7629 C   0  0  1  0  0  0  0  0  0  0  0  0
    7.2404   -0.3861    1.0164 N   0  0  0  0  0  0  0  0  0  0  0  0
    5.9053    0.1149    1.0935 C   0  0  1  0  0  0  0  0  0  0  0  0
    5.3878    0.7491   -0.1629 C   0  0  0  0  0  0  0  0  0  0  0  0
    4.2498   -0.0288   -0.7812 C   0  0  2  0  0  0  0  0  0  0  0  0
    4.7220   -1.1980   -1.4161 O   0  0  0  0  0  0  0  0  0  0  0  0
    3.6512    0.8267   -1.8772 C   0  0  0  0  0  0  0  0  0  0  0  0
    4.5428    1.1772   -2.8622 O   0  0  0  0  0  0  0  0  0  0  0  0
    3.1561   -0.3410    0.2003 C   0  0  1  0  0  0  0  0  0  0  0  0
    2.8950   -1.7281    0.1068 O   0  0  0  0  0  0  0  0  0  0  0  0
    3.5582   -0.0793    1.6351 C   0  0  2  0  0  0  0  0  0  0  0  0
    3.7309    1.3195    1.7351 O   0  0  0  0  0  0  0  0  0  0  0  0
    4.9265   -0.7583    1.8028 C   0  0  1  0  0  0  0  0  0  0  0  0
    4.7809   -2.0094    1.2056 O   0  0  0  0  0  0  0  0  0  0  0  0
    5.8273   -2.7548    1.3935 O   0  0  0  0  0  0  0  0  0  0  0  0
    5.9409   -3.6137    0.4020 O   0  0  0  0  0  0  0  0  0  0  0  0
    5.0544   -4.6617    0.5162 C   0  0  0  0  0  3  0  0  0  0  0  0
    3.8650   -4.4674   -0.1581 O   0  0  0  0  0  0  0  0  0  0  0  0
    2.9424   -3.9306    0.6409 O   0  0  0  0  0  0  0  0  0  0  0  0
    1.6642   -4.0539    0.1140 C   0  0  0  0  0  3  0  0  0  0  0  0
    0.9524   -2.8558    0.1936 O   0  0  0  0  0  0  0  0  0  0  0  0
    1.6716   -1.9213   -0.5334 C   0  0  1  0  0  0  0  0  0  0  0  0
    1.0116   -0.7108   -0.7018 O   0  0  0  0  0  0  0  0  0  0  0  0
   -0.1409   -0.9922   -1.3162 O   0  0  0  0  0  0  0  0  0  0  0  0
   -1.0005   -1.1745   -0.3085 O   0  0  0  0  0  0  0  0  0  0  0  0
   -0.7891   -0.0570    0.5345 C   0  0  0  0  0  3  0  0  0  0  0  0
   -1.6718    0.9434    0.0004 O   0  0  0  0  0  0  0  0  0  0  0  0
   -2.9632    0.6412   -0.3746 C   0  0  0  0  0  0  0  0  0  0  0  0
   -3.9691    1.0514    0.3497 C   0  0  0  0  0  0  0  0  0  0  0  0
   -3.7277    1.7901    1.4935 O   0  0  0  0  0  0  0  0  0  0  0  0
   -4.5009    2.9164    1.8778 C   0  0  0  0  0  0  0  0  0  0  0  0
   -4.4654    3.9113    0.9221 O   0  0  0  0  0  0  0  0  0  0  0  0
   -4.9809    3.3861   -0.2656 C   0  0  0  0  0  3  0  0  0  0  0  0
   -6.3474    2.7803   -0.0269 C   0  0  0  0  0  0  0  0  0  0  0  0
   -7.3928    3.8337   -0.2487 C   0  0  0  0  0  0  0  0  0  0  0  0
   -7.2513    5.0107    0.6598 C   0  0  0  0  0  3  0  0  0  0  0  0
   -6.4273    5.9539    0.0347 O   0  0  0  0  0  0  0  0  0  0  0  0
   -6.0860    6.9846    0.9141 C   0  0  0  0  0  2  0  0  0  0  0  0
   -3.2046   -0.1444   -1.5943 C   0  0  0  0  0  0  0  0  0  0  0  0
   -2.7431    0.5407   -2.7113 O   0  0  0  0  0  0  0  0  0  0  0  0
   -4.6572   -0.4333   -1.7274 C   0  0  0  0  0  3  0  0  0  0  0  0
   -5.1772   -1.1970   -0.7040 O   0  0  0  0  0  0  0  0  0  0  0  0
   -6.5660   -1.0903   -0.6592 C   0  0  0  0  0  0  0  0  0  0  0  0
   -7.0044   -1.8765    0.3714 O   0  0  0  0  0  0  0  0  0  0  0  0
   -8.1377   -1.4296    0.9983 C   0  0  1  0  0  0  0  0  0  0  0  0
   -7.8721   -0.1227    1.4530 O   0  0  0  0  0  0  0  0  0  0  0  0
   -9.2467   -1.3622    0.1606 O   0  0  0  0  0  0  0  0  0  0  0  0
  -10.0565   -2.4823    0.2332 C   0  0  0  0  0  0  0  0  0  0  0  0
  -11.2918   -2.1247   -0.3556 O   0  0  0  0  0  0  0  0  0  0  0  0
   -9.4382   -3.5052   -0.4893 O   0  0  0  0  0  0  0  0  0  0  0  0
   -8.2109   -3.1897   -0.8514 O   0  0  0  0  0  0  0  0  0  0  0  0
   -8.1758   -2.4614   -2.0368 C   0  0  0  0  0  0  0  0  0  0  0  0
   -7.1097   -1.4128   -2.0098 C   0  0  1  0  0  0  0  0  0  0  0  0
   -7.4486   -0.2840   -2.7537 O   0  0  0  0  0  0  0  0  0  0  0  0
  2  1  1  6
  2  3  1  0
  3  4  1  0
  4  5  1  1
  4  6  1  0
  6  7  1  1
  6  8  1  0
  8  9  1  6
  8 10  1  0
 10 11  1  6
 12 11  1  6
 12 13  1  0
 13 14  1  0
 14 15  1  6
 14 16  1  0
 16 17  1  0
 14 18  1  0
 18 19  1  1
 18 20  1  0
 20 21  1  6
 20 22  1  0
 22 23  1  6
 23 24  1  0
 24 25  1  0
 25 26  1  0
 26 27  1  0
 27 28  1  0
 28 29  1  0
 29 30  1  0
 30 31  1  0
 31 32  1  1
 32 33  1  0
 33 34  1  0
 34 35  1  0
 35 36  1  0
 36 37  1  0
 37 38  2  3
 38 39  1  0
 39 40  1  0
 40 41  1  0
 41 42  1  0
 42 43  1  0
 43 44  1  0
 44 45  1  0
 45 46  1  0
 46 47  1  0
 37 48  1  0
 48 49  1  0
 48 50  1  0
 50 51  1  0
 51 52  1  0
 52 53  1  0
 53 54  1  0
 54 55  1  6
 54 56  1  0
 56 57  1  0
 57 58  1  0
 57 59  1  0
 59 60  1  0
 60 61  1  0
 61 62  1  0
 62 63  1  1
 10  2  1  0
 22 12  1  0
 31 19  1  0
 62 52  1  0
M  RAD  7  26   2  29   2  35   2  42   2  45   2  47   3  50   2
M  END
$$$$
