
     RDKit          3D

 81 88  0  0  0  0  0  0  0  0999 V2000
   -8.0227    4.9137   -4.4868 O   0  0  0  0  0  0  0  0  0  0  0  0
   -8.3038    4.2515   -3.4959 C   0  0  0  0  0  0  0  0  0  0  0  0
   -7.3886    4.2021   -2.3124 C   0  0  0  0  0  0  0  0  0  0  0  0
   -7.9926    3.3182   -1.2479 C   0  0  1  0  0  0  0  0  0  0  0  0
   -9.2807    3.7760   -0.7808 N   0  0  0  0  0  0  0  0  0  0  0  0
   -7.9496    1.9153   -1.6595 C   0  0  0  0  0  0  0  0  0  0  0  0
   -7.5572    0.8726   -0.9862 C   0  0  0  0  0  0  0  0  0  0  0  0
   -7.0442    0.8383    0.3910 C   0  0  0  0  0  0  0  0  0  0  0  0
   -7.1570    2.2179    0.9651 C   0  0  0  0  0  0  0  0  0  0  0  0
   -6.2251    3.1447    0.9762 C   0  0  0  0  0  0  0  0  0  0  0  0
   -4.8597    3.3286    0.5389 C   0  0  0  0  0  0  0  0  0  0  0  0
   -4.1327    2.1067    0.1114 C   0  0  0  0  0  0  0  0  0  0  0  0
   -3.1068    2.2191   -0.6632 C   0  0  0  0  0  0  0  0  0  0  0  0
   -2.5189    3.3816   -1.2142 C   0  0  0  0  0  0  0  0  0  0  0  0
   -2.9434    4.6309   -1.0320 O   0  0  0  0  0  0  0  0  0  0  0  0
   -4.1822    4.9907   -1.5194 C   0  0  0  0  0  0  0  0  0  0  0  0
   -5.7006    0.2858    0.5520 C   0  0  0  0  0  0  0  0  0  0  0  0
   -4.4610    0.7008    0.4650 C   0  0  0  0  0  0  0  0  0  0  0  0
   -3.3812   -0.1702    0.7046 C   0  0  0  0  0  0  0  0  0  0  0  0
   -2.1174    0.2963    0.6177 C   0  0  0  0  0  0  0  0  0  0  0  0
   -0.9020   -0.0482    1.3468 C   0  0  0  0  0  0  0  0  0  0  0  0
   -0.5906   -1.4632    1.5868 C   0  0  0  0  0  0  0  0  0  0  0  0
   -0.4220   -2.2701    0.5499 C   0  0  0  0  0  0  0  0  0  0  0  0
   -0.0947   -3.6974    0.7091 C   0  0  0  0  0  0  0  0  0  0  0  0
   -1.0236   -4.6362    0.1004 C   0  0  0  0  0  0  0  0  0  0  0  0
   -1.6675   -5.5332    0.8517 C   0  0  0  0  0  0  0  0  0  0  0  0
   -2.6054   -6.4876    0.2476 C   0  0  0  0  0  0  0  0  0  0  0  0
   -2.6455   -6.2708   -1.1812 N   0  0  0  0  0  0  0  0  0  0  0  0
   -1.3725   -6.6494   -1.7882 C   0  0  0  0  0  0  0  0  0  0  0  0
   -1.1661   -8.1511   -1.7076 C   0  0  0  0  0  0  0  0  0  0  0  0
    0.1544   -8.5333   -2.3367 C   0  0  0  0  0  0  0  0  0  0  0  0
   -1.0238    0.5254    2.7432 C   0  0  0  0  0  0  0  0  0  0  0  0
   -1.9835    0.2691    3.5787 C   0  0  0  0  0  0  0  0  0  0  0  0
   -3.0334   -0.8078    3.5091 C   0  0  0  0  0  0  0  0  0  0  0  0
   -3.2664   -1.6962    2.5080 C   0  0  0  0  0  0  0  0  0  0  0  0
   -3.7145   -1.6029    1.0596 C   0  0  0  0  0  0  0  0  0  0  0  0
   -5.1336   -1.9130    0.9352 C   0  0  0  0  0  0  0  0  0  0  0  0
   -5.6523   -2.4005   -0.1720 C   0  0  0  0  0  0  0  0  0  0  0  0
   -4.8930   -2.6936   -1.4065 C   0  0  0  0  0  0  0  0  0  0  0  0
   -5.0542   -4.1580   -1.7784 C   0  0  0  0  0  0  0  0  0  0  0  0
   -2.8626   -2.4441    0.1333 C   0  0  0  0  0  0  0  0  0  0  0  0
   -2.1436   -1.6222   -0.9675 C   0  0  0  0  0  0  0  0  0  0  0  0
   -0.6493   -1.7001   -0.7702 C   0  0  0  0  0  0  0  0  0  0  0  0
    0.2553   -1.7339   -1.8158 C   0  0  0  0  0  0  0  0  0  0  0  0
    1.3705   -1.0548   -2.1398 C   0  0  0  0  0  0  0  0  0  0  0  0
    1.8153   -0.0177   -1.2461 C   0  0  0  0  0  0  0  0  0  0  0  0
    0.6222    0.9438   -1.2081 C   0  0  0  0  0  0  0  0  0  0  0  0
    0.5673    2.2389   -0.8323 C   0  0  0  0  0  0  0  0  0  0  0  0
    0.7304    2.7601    0.5746 C   0  0  0  0  0  0  0  0  0  0  0  0
    1.6569    2.0422    1.3350 N   0  0  0  0  0  0  0  0  0  0  0  0
    1.2529    1.1704    2.3419 C   0  0  0  0  0  0  0  0  0  0  0  0
    0.0320    1.4033    3.1470 C   0  0  0  0  0  0  0  0  0  0  0  0
    2.0475   -0.6821    0.0715 C   0  0  0  0  0  0  0  0  0  0  0  0
    3.1987   -0.9637    0.5964 C   0  0  0  0  0  0  0  0  0  0  0  0
    3.2292   -1.6269    1.9205 C   0  0  0  0  0  0  0  0  0  0  0  0
    2.4161   -0.9787    2.9781 C   0  0  0  0  0  0  0  0  0  0  0  0
    2.3995    0.5056    3.0058 C   0  0  0  0  0  3  0  0  0  0  0  0
    4.6299   -1.9712    2.3628 C   0  0  0  0  0  0  0  0  0  0  0  0
    5.5479   -0.7952    2.4006 C   0  0  0  0  0  0  0  0  0  0  0  0
    6.8774   -1.1992    1.8131 C   0  0  0  0  0  0  0  0  0  0  0  0
    7.1900   -0.2866    0.6909 C   0  0  0  0  0  0  0  0  0  0  0  0
    7.9110    0.7922    0.9133 C   0  0  0  0  0  0  0  0  0  0  0  0
    8.4216    1.1382    2.2150 C   0  0  0  0  0  0  0  0  0  0  0  0
    8.5710    2.3930    2.5674 C   0  0  0  0  0  0  0  0  0  0  0  0
    8.2063    3.4584    1.6051 C   0  0  0  0  0  0  0  0  0  0  0  0
    6.7590    3.3963    1.2475 C   0  0  0  0  0  0  0  0  0  0  0  0
    5.8700    3.7240    2.2088 C   0  0  0  0  0  0  0  0  0  0  0  0
    4.4087    3.6597    1.8449 C   0  0  0  0  0  0  0  0  0  0  0  0
    4.0426    2.2012    1.8686 C   0  0  0  0  0  0  0  0  0  0  0  0
    2.9616    1.8385    0.8779 C   0  0  0  0  0  0  0  0  0  0  0  0
    3.3463    1.9772   -0.5317 C   0  0  0  0  0  0  0  0  0  0  0  0
    2.9808    0.8040   -1.4221 C   0  0  0  0  0  0  0  0  0  0  0  0
    3.8981    0.7280   -2.3018 C   0  0  0  0  0  0  0  0  0  0  0  0
    4.0338   -0.2388   -3.4123 C   0  0  0  0  0  0  0  0  0  0  0  0
    5.2893   -1.0518   -3.1825 C   0  0  0  0  0  0  0  0  0  0  0  0
    6.4640   -0.5261   -3.9594 C   0  0  0  0  0  0  0  0  0  0  0  0
    7.4490    0.2187   -3.1216 C   0  0  0  0  0  0  0  0  0  0  0  0
    6.8450    1.3058   -2.2801 C   0  0  0  0  0  0  0  0  0  0  0  0
    8.4079   -0.6629   -2.3847 C   0  0  0  0  0  0  0  0  0  0  0  0
    7.6945   -1.5237   -1.3622 C   0  0  0  0  0  0  0  0  0  0  0  0
    6.6717   -0.6224   -0.6730 C   0  0  0  0  0  0  0  0  0  0  0  0
  1  2  2  0
  2  3  1  0
  3  4  1  0
  4  5  1  6
  4  6  1  0
  6  7  2  3
  7  8  1  0
  8  9  1  0
  9 10  2  0
 10 11  1  0
 11 12  1  0
 12 13  2  3
 13 14  1  0
 14 15  1  0
 15 16  1  0
  8 17  1  0
 17 18  2  0
 18 19  1  0
 19 20  2  3
 20 21  1  0
 21 22  1  0
 22 23  2  3
 23 24  1  0
 24 25  1  0
 25 26  2  3
 26 27  1  0
 27 28  1  0
 28 29  1  0
 29 30  1  0
 30 31  1  0
 21 32  1  0
 32 33  2  3
 33 34  1  0
 34 35  2  3
 35 36  1  0
 36 37  1  0
 37 38  2  3
 38 39  1  0
 39 40  1  0
 36 41  1  0
 41 42  1  0
 42 43  1  0
 43 44  1  0
 44 45  2  3
 45 46  1  0
 46 47  1  0
 47 48  2  3
 48 49  1  0
 49 50  1  0
 50 51  1  0
 51 52  1  0
 46 53  1  0
 53 54  2  3
 54 55  1  0
 55 56  1  0
 56 57  1  0
 55 58  1  0
 58 59  1  0
 59 60  1  0
 60 61  1  0
 61 62  2  3
 62 63  1  0
 63 64  2  3
 64 65  1  0
 65 66  1  0
 66 67  2  3
 67 68  1  0
 68 69  1  0
 69 70  1  0
 70 71  1  0
 71 72  1  0
 72 73  2  3
 73 74  1  0
 74 75  1  0
 75 76  1  0
 76 77  1  0
 77 78  1  0
 77 79  1  0
 79 80  1  0
 80 81  1  0
 18 12  1  0
 36 19  1  0
 43 23  1  0
 52 32  1  0
 72 46  1  0
 70 50  1  0
 57 51  1  0
 81 61  1  0
M  RAD  1  57   2
M  END
$$$$
