
     RDKit          3D

 49 52  0  0  0  0  0  0  0  0999 V2000
    7.4443    2.2713   -0.8214 C   0  0  0  0  0  0  0  0  0  0  0  0
    6.1033    2.3123   -0.2092 C   0  0  0  0  0  0  0  0  0  0  0  0
    5.7917    1.1653    0.6057 N   0  0  0  0  0  0  0  0  0  0  0  0
    5.2514   -0.0202   -0.0325 C   0  0  0  0  0  0  0  0  0  0  0  0
    5.1116   -0.0264   -1.2512 O   0  0  0  0  0  0  0  0  0  0  0  0
    4.8915   -1.1555    0.7831 C   0  0  0  0  0  0  0  0  0  0  0  0
    3.5533   -1.3490    0.8785 C   0  0  0  0  0  0  0  0  0  0  0  0
    2.2534   -1.2550    0.6770 C   0  0  0  0  0  0  0  0  0  0  0  0
    1.7952   -2.2388   -0.3818 C   0  0  0  0  0  0  0  0  0  0  0  0
    0.6986   -2.0564   -1.0015 C   0  0  0  0  0  0  0  0  0  0  0  0
   -0.1112   -2.6146   -1.9822 C   0  0  0  0  0  0  0  0  0  0  0  0
   -0.2272   -3.7950   -2.3634 O   0  0  0  0  0  0  0  0  0  0  0  0
   -1.0076   -1.6446   -2.7284 C   0  0  0  0  0  0  0  0  0  0  0  0
   -0.9916   -0.3485   -2.3834 C   0  0  0  0  0  0  0  0  0  0  0  0
   -1.8941    0.5584   -3.1472 C   0  0  0  0  0  0  0  0  0  0  0  0
   -2.5227    1.6210   -2.2656 C   0  0  0  0  0  0  0  0  0  0  0  0
   -4.0155    1.6067   -2.2597 C   0  0  0  0  0  0  0  0  0  0  0  0
   -4.6142    1.6361   -0.8741 C   0  0  0  0  0  0  0  0  0  0  0  0
   -5.4147    0.3817   -0.6117 C   0  0  0  0  0  0  0  0  0  0  0  0
   -5.8509   -0.2364   -1.9497 C   0  0  0  0  0  0  0  0  0  0  0  0
   -6.1319    0.8164   -2.9736 C   0  0  0  0  0  0  0  0  0  0  0  0
   -7.5290    0.7971   -3.5120 C   0  0  0  0  0  0  0  0  0  0  0  0
   -8.5840    0.3619   -2.5391 C   0  0  0  0  0  0  0  0  0  0  0  0
   -8.3367    0.8674   -1.1345 C   0  0  0  0  0  0  0  0  0  0  0  0
   -8.9671   -0.0152   -0.1183 C   0  0  0  0  0  0  0  0  0  0  0  0
   -8.2217   -0.0872    1.1960 C   0  0  0  0  0  0  0  0  0  0  0  0
   -7.9088   -1.4841    1.6205 C   0  0  0  0  0  0  0  0  0  0  0  0
   -6.9168   -1.4510    2.7609 C   0  0  0  0  0  0  0  0  0  0  0  0
   -7.4398   -2.2831    0.4431 C   0  0  0  0  0  0  0  0  0  0  0  0
   -6.0020   -2.7510    0.5829 C   0  0  0  0  0  0  0  0  0  0  0  0
   -5.0176   -1.7568    0.3960 C   0  0  0  0  0  0  0  0  0  0  0  0
   -4.5553   -0.6876    0.0507 C   0  0  0  0  0  0  0  0  0  0  0  0
   -3.0940   -0.2638    0.1903 C   0  0  0  0  0  0  0  0  0  0  0  0
   -2.9264    0.9340    1.0494 C   0  0  0  0  0  0  0  0  0  0  0  0
   -1.6379    0.7547    1.8005 C   0  0  0  0  0  0  0  0  0  0  0  0
   -1.1922    1.1911    2.9699 C   0  0  0  0  0  0  0  0  0  0  0  0
   -0.1901    0.1573    3.4655 C   0  0  0  0  0  0  0  0  0  0  0  0
    0.5391   -0.1640    2.1933 C   0  0  0  0  0  0  0  0  0  0  0  0
   -0.6134   -0.0729    1.1858 C   0  0  0  0  0  0  0  0  0  0  0  0
    0.5021    0.6655    0.4698 C   0  0  0  0  0  0  0  0  0  0  0  0
    1.2727   -0.4456    1.1994 C   0  0  0  0  0  0  0  0  0  0  0  0
    5.9022    1.1682    2.0061 C   0  0  0  0  0  0  0  0  0  0  0  0
    6.9850    0.6847    2.7617 C   0  0  0  0  0  0  0  0  0  0  0  0
    8.3411    1.0692    2.8368 C   0  0  0  0  0  0  0  0  0  0  0  0
    9.2307    1.0443    1.7448 C   0  0  0  0  0  0  0  0  0  0  0  0
   10.0053    1.0186    0.7749 C   0  0  0  0  0  0  0  0  0  0  0  0
   10.8982    1.0055   -0.3629 C   0  0  0  0  0  0  0  0  0  0  0  0
   12.1325    0.3520   -0.0266 C   0  0  0  0  0  0  0  0  0  0  0  0
   13.2110   -0.2169    0.2877 C   0  0  0  0  0  0  0  0  0  0  0  0
  1  2  1  0
  2  3  1  0
  3  4  1  0
  4  5  2  0
  4  6  1  0
  6  7  2  0
  7  8  2  0
  8  9  1  0
  9 10  2  3
 10 11  1  0
 11 12  2  0
 11 13  1  0
 13 14  2  3
 14 15  1  0
 15 16  1  0
 16 17  1  0
 17 18  1  0
 18 19  1  0
 19 20  1  0
 20 21  1  0
 21 22  1  0
 22 23  1  0
 23 24  1  0
 24 25  1  0
 25 26  1  0
 26 27  1  0
 27 28  1  0
 27 29  1  0
 29 30  1  0
 30 31  1  0
 31 32  2  3
 32 33  1  0
 33 34  1  0
 34 35  1  0
 35 36  2  0
 36 37  1  0
 37 38  1  0
 38 39  1  0
 39 40  1  0
 40 41  1  0
  3 42  1  0
 42 43  1  0
 43 44  1  0
 44 45  1  0
 45 46  3  0
 46 47  1  0
 47 48  1  0
 48 49  3  0
 41  8  1  0
 32 19  1  0
 39 35  1  0
 38 41  2  0
M  END
$$$$
