
     RDKit          3D

  9  8  0  0  0  0  0  0  0  0999 V2000
    2.7674    1.4584    1.6031 C   0  0  0  0  0  0  0  0  0  0  0  0
    2.4112    0.5839    0.4114 C   0  0  0  0  0  0  0  0  0  0  0  0
    1.7849   -0.7118    0.9052 C   0  0  0  0  0  0  0  0  0  0  0  0
    1.4611   -1.5230   -0.3513 C   0  0  0  0  0  0  0  0  0  0  0  0
    0.4930   -0.7069   -1.1956 C   0  0  0  0  0  0  0  0  0  0  0  0
   -0.7385   -0.4850   -0.3338 C   0  0  0  0  0  0  0  0  0  0  0  0
   -1.7860    0.3310   -1.0882 C   0  0  0  0  0  0  0  0  0  0  0  0
   -2.9642    0.4875   -0.1317 C   0  0  0  0  0  0  0  0  0  0  0  0
   -3.4290   -0.9396    0.1809 C   0  0  0  0  0  0  0  0  0  0  0  0
  1  2  1  0
  2  3  1  0
  3  4  1  0
  4  5  1  0
  5  6  1  0
  6  7  1  0
  7  8  1  0
  8  9  1  0
M  END
$$$$
