
     RDKit          3D

 40 46  0  0  0  0  0  0  0  0999 V2000
   -4.5658    0.9761    1.8696 C   0  0  0  0  0  0  0  0  0  0  0  0
   -3.7231    0.8657    0.7464 O   0  0  0  0  0  0  0  0  0  0  0  0
   -3.2341    2.0564    0.1970 C   0  0  0  0  0  0  0  0  0  0  0  0
   -3.5252    3.2527    0.7456 C   0  0  0  0  0  0  0  0  0  0  0  0
   -3.0208    4.4471    0.2189 C   0  0  0  0  0  0  0  0  0  0  0  0
   -2.2287    4.3868   -0.8653 C   0  0  0  0  0  0  0  0  0  0  0  0
   -1.9151    3.1437   -1.4389 C   0  0  0  0  0  0  0  0  0  0  0  0
   -2.3771    1.9554   -0.9894 C   0  0  0  0  0  0  0  0  0  0  0  0
   -2.1062    0.6677   -1.3597 C   0  0  0  0  0  0  0  0  0  0  0  0
   -2.6373   -0.0897   -2.4754 C   0  0  0  0  0  0  0  0  0  0  0  0
   -2.7020   -1.5000   -1.9040 C   0  0  0  0  0  0  0  0  0  0  0  0
   -3.9394   -1.8140   -1.1265 C   0  0  0  0  0  0  0  0  0  0  0  0
   -3.8258   -2.9867   -0.3171 C   0  0  0  0  0  0  0  0  0  0  0  0
   -4.8872   -3.4687    0.3782 C   0  0  0  0  0  0  0  0  0  0  0  0
   -6.1236   -2.8538    0.3533 C   0  0  0  0  0  0  0  0  0  0  0  0
   -7.1577   -3.3688    1.1203 O   0  0  0  0  0  0  0  0  0  0  0  0
   -6.2462   -1.7370   -0.4305 C   0  0  0  0  0  0  0  0  0  0  0  0
   -5.1378   -1.2377   -1.1427 C   0  0  0  0  0  0  0  0  0  0  0  0
   -1.7277   -1.4278   -0.7828 N   0  0  0  0  0  0  0  0  0  0  0  0
   -1.4247   -0.3284   -0.4729 C   0  0  0  0  0  0  0  0  0  0  0  0
   -0.4908    0.0933    0.5972 C   0  0  0  0  0  0  0  0  0  0  0  0
   -0.9810    0.9918    1.6656 C   0  0  0  0  0  0  0  0  0  0  0  0
    0.3369   -1.1248    1.2604 C   0  0  0  0  0  0  0  0  0  0  0  0
    0.8868   -1.3231   -0.1680 N   0  0  0  0  0  0  0  0  0  0  0  0
    2.3102   -1.2873    0.0536 C   0  0  0  0  0  0  0  0  0  0  0  0
    2.0015    0.5305    0.4389 C   0  0  0  0  0  0  0  0  0  0  0  0
    0.8952    0.4150    0.2572 C   0  0  0  0  0  0  0  0  0  0  0  0
    0.5605    0.1338    2.0370 C   0  0  0  0  0  0  0  0  0  0  0  0
    1.3910   -0.9583    2.1336 N   0  0  0  0  0  0  0  0  0  0  0  0
    2.6593   -0.9860    2.4917 C   0  0  0  0  0  0  0  0  0  0  0  0
    3.7772   -0.2030    1.7693 C   0  0  0  0  0  0  0  0  0  0  0  0
    3.4159    0.6135    0.6491 C   0  0  0  0  0  0  0  0  0  0  0  0
    4.2057    1.1599   -0.2254 N   0  0  0  0  0  0  0  0  0  0  0  0
    4.7295    0.8872   -1.4041 O   0  0  0  0  0  0  0  0  0  0  0  0
    6.0066    0.5424   -1.1935 O   0  0  0  0  0  0  0  0  0  0  0  0
    6.2668    0.6319    0.1240 N   0  0  0  0  0  0  0  0  0  0  0  0
    7.3040    0.0819    0.8334 C   0  0  0  0  0  0  0  0  0  0  0  0
    8.5207   -0.1972    0.6257 C   0  0  0  0  0  0  0  0  0  0  0  0
    9.1694    0.0688   -0.6120 N   0  0  0  0  0  0  0  0  0  0  0  0
    9.5400   -1.0095   -1.1982 O   0  0  0  0  0  0  0  0  0  0  0  0
  1  2  1  0
  2  3  1  0
  3  4  2  0
  4  5  1  0
  5  6  2  0
  6  7  1  0
  7  8  2  0
  8  9  1  0
  9 10  1  0
 10 11  1  0
 11 12  1  0
 12 13  2  0
 13 14  1  0
 14 15  2  0
 15 16  1  0
 15 17  1  0
 17 18  2  0
 11 19  1  0
 19 20  2  0
 20 21  1  0
 21 22  1  0
 21 23  1  0
 23 24  1  0
 24 25  2  0
 25 26  1  0
 26 27  2  0
 27 28  1  0
 28 29  1  0
 29 30  1  0
 30 31  1  0
 31 32  2  0
 32 33  1  0
 33 34  1  0
 34 35  1  0
 35 36  1  0
 36 37  1  0
 37 38  2  3
 38 39  1  0
 39 40  2  0
  8  3  1  0
 20  9  1  0
 18 12  1  0
 27 21  1  0
 28 23  1  0
 29 23  1  0
 32 26  1  0
M  END
$$$$
