
     RDKit          3D

 30 34  0  0  0  0  0  0  0  0999 V2000
    4.1474   -1.0950   -2.1541 O   0  0  0  0  0  0  0  0  0  0  0  0
    3.2525   -0.1626   -1.6360 C   0  0  0  0  0  0  0  0  0  0  0  0
    4.1471    0.6521   -0.7414 C   0  0  0  0  0  0  0  0  0  0  0  0
    4.0605    1.9272   -0.2511 C   0  0  0  0  0  0  0  0  0  0  0  0
    5.0614    2.4002    0.5630 C   0  0  0  0  0  0  0  0  0  0  0  0
    6.1652    1.6368    0.9133 C   0  0  0  0  0  0  0  0  0  0  0  0
    6.2061    0.3583    0.3936 C   0  0  0  0  0  0  0  0  0  0  0  0
    5.2277   -0.1382   -0.4167 C   0  0  0  0  0  0  0  0  0  0  0  0
    4.9951   -1.4483   -1.1172 C   0  0  1  0  0  0  0  0  0  0  0  0
    4.2455   -2.2849   -0.1843 N   0  0  0  0  0  0  0  0  0  0  0  0
    3.1091   -1.5135    0.3182 C   0  0  0  0  0  3  0  0  0  0  0  0
    2.7273   -2.0913    1.5236 O   0  0  0  0  0  0  0  0  0  0  0  0
    1.4680   -1.6771    1.7919 N   0  0  0  0  0  0  0  0  0  0  0  0
    0.8463   -1.1737    0.5845 C   0  0  0  0  0  0  0  0  0  0  0  0
   -0.5344   -0.7355    0.9501 C   0  0  0  0  0  0  0  0  0  0  0  0
   -1.0127   -0.8494    2.2675 C   0  0  0  0  0  0  0  0  0  0  0  0
   -2.3124   -0.4119    2.5004 C   0  0  0  0  0  0  0  0  0  0  0  0
   -3.0866    0.0990    1.5165 C   0  0  0  0  0  0  0  0  0  0  0  0
   -2.5501    0.1715    0.2836 C   0  0  0  0  0  0  0  0  0  0  0  0
   -1.3134   -0.2222   -0.0358 C   0  0  0  0  0  0  0  0  0  0  0  0
   -0.9322   -0.0342   -1.4490 C   0  0  0  0  0  3  0  0  0  0  0  0
   -2.1915    0.3984   -2.1294 N   0  0  0  0  0  0  0  0  0  0  0  0
   -2.9044    1.2629   -1.2547 C   0  0  0  0  0  0  0  0  0  0  0  0
   -4.3268    0.9634   -1.0092 C   0  0  0  0  0  0  0  0  0  0  0  0
   -5.0818    0.9637   -2.2081 C   0  0  0  0  0  0  0  0  0  0  0  0
   -6.4270    0.7263   -2.2493 C   0  0  0  0  0  0  0  0  0  0  0  0
   -7.1080    0.4715   -1.0846 C   0  0  0  0  0  0  0  0  0  0  0  0
   -6.3925    0.4672    0.0849 C   0  0  0  0  0  0  0  0  0  0  0  0
   -5.0066    0.7109    0.1324 C   0  0  0  0  0  0  0  0  0  0  0  0
   -4.4786    0.6286    1.5442 C   0  0  0  0  0  3  0  0  0  0  0  0
  1  2  1  0
  2  3  1  0
  3  4  2  0
  4  5  1  0
  5  6  2  0
  6  7  1  0
  7  8  2  0
  8  9  1  0
  9 10  1  1
 10 11  1  0
 11 12  1  0
 12 13  1  0
 13 14  1  0
 14 15  1  0
 15 16  2  0
 16 17  1  0
 17 18  2  0
 18 19  1  0
 19 20  2  0
 20 21  1  0
 21 22  1  0
 22 23  1  0
 23 24  1  0
 24 25  2  0
 25 26  1  0
 26 27  2  0
 27 28  1  0
 28 29  2  0
 29 30  1  0
  9  1  1  0
  8  3  1  0
 20 15  1  0
 30 18  1  0
 29 24  1  0
M  RAD  3  11   2  21   2  30   2
M  END
$$$$
