
     RDKit          3D

 18 18  0  0  0  0  0  0  0  0999 V2000
   -5.4951    0.1473    1.1204 C   0  0  0  0  0  0  0  0  0  0  0  0
   -4.3313    0.2067    1.8342 O   0  0  0  0  0  0  0  0  0  0  0  0
   -3.2929   -0.3046    0.9717 C   0  0  0  0  0  3  0  0  0  0  0  0
   -2.1578   -0.3734    1.7961 O   0  0  0  0  0  0  0  0  0  0  0  0
   -1.0071   -0.1204    1.1386 C   0  0  2  0  0  0  0  0  0  0  0  0
   -0.5498    1.2040    1.7599 C   0  0  0  0  0  0  0  0  0  0  0  0
   -0.9452   -0.2412   -0.2663 C   0  0  0  0  0  0  0  0  0  0  0  0
   -1.9401    0.6676   -0.9712 C   0  0  0  0  0  3  0  0  0  0  0  0
   -1.5495    0.5858   -2.3968 C   0  0  0  0  0  3  0  0  0  0  0  0
   -0.0998    0.2769   -2.4477 C   0  0  0  0  0  0  0  0  0  0  0  0
    0.3008   -0.0456   -0.9957 C   0  0  0  0  0  0  0  0  0  0  0  0
    0.9204   -1.5010   -1.1880 C   0  0  0  0  0  0  0  0  0  0  0  0
    1.3862    0.8345   -0.6432 C   0  0  0  0  0  0  0  0  0  0  0  0
    2.1167    0.5542    0.6278 C   0  0  0  0  0  0  0  0  0  0  0  0
    3.6485    0.5100    0.2614 C   0  0  1  0  0  0  0  0  0  0  0  0
    4.3391    0.2853    1.4143 O   0  0  0  0  0  0  0  0  0  0  0  0
    3.7320   -0.7589   -0.6224 C   0  0  0  0  0  3  0  0  0  0  0  0
    4.9249   -0.6486   -1.3931 O   0  0  0  0  0  0  0  0  0  0  0  0
  1  2  1  0
  2  3  1  0
  3  4  1  0
  4  5  1  0
  5  6  1  6
  5  7  1  0
  7  8  1  0
  8  9  1  0
  9 10  1  0
 10 11  1  0
 11 12  1  0
 11 13  1  0
 13 14  1  0
 14 15  1  0
 15 16  1  1
 15 17  1  0
 17 18  1  0
 11  7  1  0
M  RAD  4   3   2   8   2   9   2  17   2
M  END
$$$$
