
     RDKit          3D

 31 33  0  0  0  0  0  0  0  0999 V2000
    3.3505   -2.4097    0.6632 C   0  0  0  0  0  0  0  0  0  0  0  0
    3.7562   -0.9535    0.7245 C   0  0  1  0  0  0  0  0  0  0  0  0
    5.1208   -0.8554    1.3487 C   0  0  0  0  0  0  0  0  0  0  0  0
    5.7442    0.4984    1.1482 C   0  0  2  0  0  0  0  0  0  0  0  0
    5.0923    1.4927    1.8747 O   0  0  0  0  0  0  0  0  0  0  0  0
    5.8394    0.8750   -0.3240 C   0  0  2  0  0  0  0  0  0  0  0  0
    5.2088    2.0959   -0.5331 O   0  0  0  0  0  0  0  0  0  0  0  0
    5.1593   -0.1842   -1.1782 C   0  0  1  0  0  0  0  0  0  0  0  0
    5.8364   -1.3922   -1.0100 O   0  0  0  0  0  0  0  0  0  0  0  0
    3.7591   -0.3439   -0.6515 C   0  0  1  0  0  0  0  0  0  0  0  0
    2.9610   -1.2079   -1.5037 N   0  0  0  0  0  0  0  0  0  0  0  0
    1.6092   -1.1974   -0.9491 C   0  0  0  0  0  3  0  0  0  0  0  0
    1.3857    0.1535   -0.3266 C   0  0  0  0  0  0  0  0  0  0  0  0
    1.0318    1.1270   -1.4185 C   0  0  0  0  0  0  0  0  0  0  0  0
    0.4146    0.1269    0.6811 O   0  0  0  0  0  0  0  0  0  0  0  0
   -0.8291   -0.0410    0.1744 N   0  0  0  0  0  0  0  0  0  0  0  0
   -0.8018   -1.2291   -0.4946 O   0  0  0  0  0  0  0  0  0  0  0  0
   -1.9804   -1.3043   -1.2235 C   0  0  0  0  0  3  0  0  0  0  0  0
   -3.1616   -1.5677   -0.3293 C   0  0  1  0  0  0  0  0  0  0  0  0
   -2.9337   -1.1545    0.9681 O   0  0  0  0  0  0  0  0  0  0  0  0
   -4.4562   -1.0859   -0.9084 C   0  0  2  0  0  0  0  0  0  0  0  0
   -4.1623   -0.4719   -2.1369 O   0  0  0  0  0  0  0  0  0  0  0  0
   -5.1756   -0.0838   -0.0741 C   0  0  1  0  0  0  0  0  0  0  0  0
   -6.2114   -0.6719    0.8425 C   0  0  0  0  0  0  0  0  0  0  0  0
   -6.0481   -0.0277    2.1896 C   0  0  0  0  0  3  0  0  0  0  0  0
   -5.9937    1.3537    1.9779 O   0  0  0  0  0  0  0  0  0  0  0  0
   -4.1772    0.8298    0.9885 S   0  0  0  0  0  0  0  0  0  0  0  0
   -4.1460    2.5148    0.0366 C   0  0  0  0  0  0  0  0  0  0  0  0
   -3.0908    2.2328   -0.8153 O   0  0  0  0  0  0  0  0  0  0  0  0
   -1.9369    1.9353   -0.1051 C   0  0  0  0  0  0  0  0  0  0  0  0
   -1.1644    0.9460   -0.6930 O   0  0  0  0  0  0  0  0  0  0  0  0
  2  1  1  6
  2  3  1  0
  3  4  1  0
  4  5  1  1
  4  6  1  0
  6  7  1  1
  6  8  1  0
  8  9  1  1
  8 10  1  0
 10 11  1  6
 11 12  1  0
 12 13  1  0
 13 14  1  0
 13 15  1  0
 15 16  1  0
 16 17  1  0
 17 18  1  0
 18 19  1  0
 19 20  1  1
 19 21  1  0
 21 22  1  6
 21 23  1  0
 23 24  1  1
 24 25  1  0
 25 26  1  0
 26 27  1  0
 27 28  1  0
 28 29  1  0
 29 30  1  0
 30 31  1  0
 10  2  1  0
 31 16  1  0
 27 23  1  0
M  RAD  3  12   2  18   2  25   2
M  END
$$$$
