
     RDKit          3D

 27 28  0  0  0  0  0  0  0  0999 V2000
   -6.8467   -0.4346    2.0578 C   0  0  0  0  0  0  0  0  0  0  0  0
   -5.6537   -0.1543    1.1853 C   0  0  0  0  0  0  0  0  0  0  0  0
   -5.7796   -0.0247   -0.0394 O   0  0  0  0  0  0  0  0  0  0  0  0
   -4.3945   -0.0371    1.7427 O   0  0  0  0  0  0  0  0  0  0  0  0
   -3.2148    0.2182    1.0556 C   0  0  0  0  0  3  0  0  0  0  0  0
   -3.3257    0.3685   -0.3963 C   0  0  0  0  0  0  0  0  0  0  0  0
   -3.2633    1.7223   -1.0463 C   0  0  0  0  0  0  0  0  0  0  0  0
   -3.4738   -0.5825   -1.1604 O   0  0  0  0  0  0  0  0  0  0  0  0
   -2.1607   -0.7761    1.4036 C   0  0  0  0  0  0  0  0  0  0  0  0
   -0.8018   -0.3724    0.9090 C   0  0  0  0  0  0  0  0  0  0  0  0
   -0.8039   -0.2290   -0.5973 C   0  0  0  0  0  3  0  0  0  0  0  0
    0.6704   -0.2628   -1.0224 C   0  0  0  0  0  0  0  0  0  0  0  0
    1.1337   -1.6907   -0.7125 C   0  0  0  0  0  0  0  0  0  0  0  0
    2.5785   -1.9005   -1.0243 C   0  0  2  0  0  0  0  0  0  0  0  0
    2.8134   -2.7567   -2.2276 C   0  0  0  0  0  0  0  0  0  0  0  0
    3.3235   -2.3731    0.0453 O   0  0  0  0  0  0  0  0  0  0  0  0
    4.5362   -1.7223    0.1947 C   0  0  0  0  0  0  0  0  0  0  0  0
    4.5139   -0.3343   -0.3520 C   0  0  0  0  0  0  0  0  0  0  0  0
    5.0642    0.5283    0.3117 O   0  0  0  0  0  0  0  0  0  0  0  0
    3.8573    0.0071   -1.6445 C   0  0  0  0  0  0  0  0  0  0  0  0
    3.2938    1.3508   -1.5489 C   0  0  0  0  0  0  0  0  0  0  0  0
    2.2010    1.7092   -0.9160 C   0  0  0  0  0  0  0  0  0  0  0  0
    1.8050    3.1322   -0.9441 C   0  0  0  0  0  0  0  0  0  0  0  0
    1.3789    0.7529   -0.1956 C   0  0  2  0  0  0  0  0  0  0  0  0
    1.9222    0.2558    1.0964 C   0  0  0  0  0  0  0  0  0  0  0  0
    1.0003    0.6983    2.2132 C   0  0  0  0  0  0  0  0  0  0  0  0
   -0.3739    0.8880    1.6123 C   0  0  0  0  0  3  0  0  0  0  0  0
  1  2  1  0
  2  3  2  0
  2  4  1  0
  4  5  1  0
  5  6  1  0
  6  7  1  0
  6  8  2  0
  5  9  1  0
  9 10  1  0
 10 11  1  0
 11 12  1  0
 12 13  1  0
 13 14  1  0
 14 15  1  6
 14 16  1  0
 16 17  1  0
 17 18  1  0
 18 19  2  0
 18 20  1  0
 20 21  1  0
 21 22  2  3
 22 23  1  0
 22 24  1  0
 24 25  1  1
 25 26  1  0
 26 27  1  0
 27 10  1  0
 24 12  1  0
M  RAD  3   5   2  11   2  27   2
M  END
$$$$
