
     RDKit          3D

 26 25  0  0  0  0  0  0  0  0999 V2000
    7.6322   -0.3097    0.1877 C   0  0  0  0  0  0  0  0  0  0  0  0
    7.6979   -0.3107    1.6890 C   0  0  0  0  0  0  0  0  0  0  0  0
    8.7347   -1.3493    2.0932 C   0  0  0  0  0  0  0  0  0  0  0  0
    6.4044   -0.6967    2.3459 C   0  0  0  0  0  0  0  0  0  0  0  0
    5.2617    0.2086    2.0111 C   0  0  0  0  0  0  0  0  0  0  0  0
    4.9475    0.2629    0.5391 C   0  0  0  0  0  0  0  0  0  0  0  0
    3.7813    1.2083    0.3500 C   0  0  1  0  0  0  0  0  0  0  0  0
    3.4218    1.3022   -1.1085 C   0  0  0  0  0  0  0  0  0  0  0  0
    2.6251    0.8544    1.2315 C   0  0  0  0  0  3  0  0  0  0  0  0
    2.0908   -0.5364    0.9734 C   0  0  0  0  0  0  0  0  0  0  0  0
    1.6204   -0.6554   -0.4536 C   0  0  0  0  0  0  0  0  0  0  0  0
    0.4946    0.4077   -0.6429 C   0  0  1  0  0  0  0  0  0  0  0  0
    0.0475    0.2526   -2.0996 C   0  0  0  0  0  0  0  0  0  0  0  0
   -0.5616    0.1082    0.3370 C   0  0  0  0  0  3  0  0  0  0  0  0
   -1.6936    0.9785    0.5576 C   0  0  0  0  0  0  0  0  0  0  0  0
   -2.5888    1.2693   -0.5469 C   0  0  0  0  0  0  0  0  0  0  0  0
   -2.0787    1.9497   -1.7539 C   0  0  0  0  0  0  0  0  0  0  0  0
   -3.9720    1.7342   -0.1312 C   0  0  0  0  0  0  0  0  0  0  0  0
   -4.7497    1.9845   -1.4217 C   0  0  0  0  0  0  0  0  0  0  0  0
   -4.8241    0.6939   -2.2195 C   0  0  0  0  0  0  0  0  0  0  0  0
   -5.5391    0.9677   -3.3836 O   0  0  0  0  0  0  0  0  0  0  0  0
   -5.6421   -0.2786   -1.3937 C   0  0  0  0  0  0  0  0  0  0  0  0
   -4.9694   -0.5148   -0.0549 C   0  0  0  0  0  0  0  0  0  0  0  0
   -5.7735   -1.4630    0.7420 C   0  0  0  0  0  0  0  0  0  0  0  0
   -6.9565   -2.0101    0.2631 O   0  0  0  0  0  0  0  0  0  0  0  0
   -5.4107   -1.8090    1.8894 O   0  0  0  0  0  0  0  0  0  0  0  0
  1  2  1  0
  2  3  1  0
  2  4  1  0
  4  5  1  0
  5  6  1  0
  6  7  1  0
  7  8  1  6
  7  9  1  0
  9 10  1  0
 10 11  1  0
 11 12  1  0
 12 13  1  6
 12 14  1  0
 14 15  1  0
 15 16  1  0
 16 17  1  0
 16 18  1  0
 18 19  1  0
 19 20  1  0
 20 21  1  0
 20 22  1  0
 22 23  1  0
 23 24  1  0
 24 25  1  0
 24 26  2  0
M  RAD  2   9   2  14   2
M  END
$$$$
