
     RDKit          3D

 23 23  0  0  0  0  0  0  0  0999 V2000
   -1.8865    1.0289   -2.1662 C   0  0  0  0  0  0  0  0  0  0  0  0
   -1.8415    0.8302   -0.6498 C   0  0  1  0  0  0  0  0  0  0  0  0
   -2.7505    1.8802   -0.0454 C   0  0  0  0  0  0  0  0  0  0  0  0
   -3.5692    1.3581    1.0867 C   0  0  2  0  0  0  0  0  0  0  0  0
   -2.8403    1.0743    2.2330 O   0  0  0  0  0  0  0  0  0  0  0  0
   -4.5036    0.2340    0.6939 C   0  0  2  0  0  0  0  0  0  0  0  0
   -4.3347   -0.7753    1.6702 O   0  0  0  0  0  0  0  0  0  0  0  0
   -3.9473   -0.3819   -0.5976 C   0  0  1  0  0  0  0  0  0  0  0  0
   -4.1374    0.6104   -1.5838 O   0  0  0  0  0  0  0  0  0  0  0  0
   -2.4560   -0.5128   -0.3680 C   0  0  1  0  0  0  0  0  0  0  0  0
   -1.8589   -1.6096   -1.0553 N   0  0  0  0  0  0  0  0  0  0  0  0
   -0.4862   -1.7576   -0.6435 C   0  0  0  0  0  3  0  0  0  0  0  0
    0.0461   -0.4773   -0.0676 C   0  0  0  0  0  0  0  0  0  0  0  0
    1.4785   -0.6221    0.3716 C   0  0  0  0  0  0  0  0  0  0  0  0
    1.6000   -1.6006    1.3403 O   0  0  0  0  0  0  0  0  0  0  0  0
    1.9033    0.6178    0.8851 O   0  0  0  0  0  0  0  0  0  0  0  0
    2.3143   -0.9806   -0.6988 O   0  0  0  0  0  0  0  0  0  0  0  0
    3.6349   -1.0585   -0.2291 C   0  0  1  0  0  0  0  0  0  0  0  0
    4.4148   -1.4174   -1.3327 O   0  0  0  0  0  0  0  0  0  0  0  0
    4.0405    0.3515    0.1749 C   0  0  2  0  0  0  0  0  0  0  0  0
    3.9333    1.1424   -0.9886 O   0  0  0  0  0  0  0  0  0  0  0  0
    5.4654    0.3782    0.6517 C   0  0  0  0  0  3  0  0  0  0  0  0
    5.7809    1.6876    1.0089 O   0  0  0  0  0  0  0  0  0  0  0  0
  2  1  1  6
  2  3  1  0
  3  4  1  0
  4  5  1  1
  4  6  1  0
  6  7  1  1
  6  8  1  0
  8  9  1  6
  8 10  1  0
 10 11  1  6
 11 12  1  0
 12 13  1  0
 13 14  1  0
 14 15  1  0
 14 16  1  0
 14 17  1  0
 17 18  1  0
 18 19  1  6
 18 20  1  0
 20 21  1  6
 20 22  1  0
 22 23  1  0
 10  2  1  0
M  RAD  2  12   2  22   2
M  END
$$$$
