
     RDKit          3D

 50 52  0  0  0  0  0  0  0  0999 V2000
  -13.3422   -0.4029    1.4448 C   0  0  0  0  0  0  0  0  0  0  0  0
  -12.2539   -0.3247    0.4993 C   0  0  0  0  0  0  0  0  0  0  0  0
  -11.0170   -0.5237    0.5509 C   0  0  0  0  0  0  0  0  0  0  0  0
   -9.9296   -0.7952    0.9741 C   0  0  0  0  0  0  0  0  0  0  0  0
   -8.6371   -1.0580    1.2601 C   0  0  0  0  0  0  0  0  0  0  0  0
   -7.9590   -1.5291    2.6602 Cl  0  0  0  0  0  0  0  0  0  0  0  0
   -7.8719   -1.1747   -0.1733 C   0  0  0  0  0  0  0  0  0  0  0  0
   -9.0057   -1.8305   -1.4351 Cl  0  0  0  0  0  0  0  0  0  0  0  0
   -7.4845    0.1543   -0.4998 C   0  0  0  0  0  0  0  0  0  0  0  0
   -6.9384    0.7445   -1.6930 C   0  0  0  0  0  0  0  0  0  0  0  0
   -7.8106    1.6485   -2.3620 C   0  0  0  0  0  0  0  0  0  0  0  0
   -7.3803    2.2974   -3.5498 C   0  0  0  0  0  0  0  0  0  0  0  0
   -6.2038    2.0052   -3.9488 C   0  0  0  0  0  0  0  0  0  0  0  0
   -5.3217    1.1610   -3.3601 C   0  0  0  0  0  0  0  0  0  0  0  0
   -5.6961    0.5204   -2.1906 C   0  0  0  0  0  0  0  0  0  0  0  0
   -4.7205   -0.3280   -1.6431 C   0  0  0  0  0  0  0  0  0  0  0  0
   -3.7055   -0.2789   -0.6149 C   0  0  0  0  0  0  0  0  0  0  0  0
   -3.4690    0.7023    0.1828 C   0  0  0  0  0  0  0  0  0  0  0  0
   -2.7335    1.1113    1.1740 C   0  0  0  0  0  0  0  0  0  0  0  0
   -1.8594    0.2888    1.9826 C   0  0  1  0  0  0  0  0  0  0  0  0
   -2.8401   -0.9198    2.8974 Cl  0  0  0  0  0  0  0  0  0  0  0  0
   -0.6344   -0.2480    1.6018 N   0  0  0  0  0  0  0  0  0  0  0  0
   -0.6474   -1.0844    0.5307 C   0  0  0  0  0  0  0  0  0  0  0  0
   -0.6390   -0.6966   -0.8959 C   0  0  0  0  0  0  0  0  0  0  0  0
   -1.0793   -2.0597   -1.6242 C   0  0  0  0  0  0  0  0  0  0  0  0
    0.9231   -0.7145   -1.3431 C   0  0  0  0  0  0  0  0  0  0  0  0
    1.5384    0.3900   -0.4753 C   0  0  0  0  0  0  0  0  0  0  0  0
    1.4541    1.6791   -0.7828 C   0  0  0  0  0  0  0  0  0  0  0  0
    1.7967    2.6661    0.1246 C   0  0  0  0  0  0  0  0  0  0  0  0
    2.2396    2.2295    1.3747 C   0  0  0  0  0  0  0  0  0  0  0  0
    2.3455    0.9177    1.6486 C   0  0  0  0  0  0  0  0  0  0  0  0
    2.0149   -0.0317    0.7877 C   0  0  0  0  0  0  0  0  0  0  0  0
    2.3058   -1.4050    0.8829 N   0  0  0  0  0  0  0  0  0  0  0  0
    3.8007   -1.7220    0.8914 C   0  0  0  0  0  0  0  0  0  0  0  0
    4.2296   -1.7902   -0.6233 C   0  0  0  0  0  0  0  0  0  0  0  0
    3.8766   -0.5083   -1.1905 N   0  0  0  0  0  0  0  0  0  0  0  0
    4.7417    0.5729   -1.1362 C   0  0  0  0  0  0  0  0  0  0  0  0
    5.5130    0.4465    0.3378 C   0  0  0  0  0  0  0  0  0  0  0  0
    6.0605    0.3387    1.3867 C   0  0  0  0  0  0  0  0  0  0  0  0
    6.7737    0.2257    2.7417 C   0  0  0  0  0  0  0  0  0  0  0  0
    8.1290    0.1722    2.1415 N   0  0  0  0  0  0  0  0  0  0  0  0
    8.4073   -0.7900    1.2692 C   0  0  0  0  0  0  0  0  0  0  0  0
    9.0002    1.2403    2.3172 C   0  0  0  0  0  0  0  0  0  0  0  0
   10.3015    0.9607    1.0723 S   0  0  0  0  0  0  0  0  0  0  0  0
   11.0004   -0.9853    1.7237 N   0  0  0  0  0  0  0  0  0  0  0  0
   11.6596   -1.0009    0.4589 C   0  0  0  0  0  0  0  0  0  0  0  0
   10.5179   -1.0757   -0.5684 C   0  0  0  0  0  0  0  0  0  0  0  0
    9.7947    0.2397   -0.4467 C   0  0  2  0  0  0  0  0  0  0  0  0
   10.3937    1.2047   -1.4767 C   0  0  0  0  0  0  0  0  0  0  0  0
   10.3618    0.8658   -2.8838 C   0  0  0  0  0  0  0  0  0  0  0  0
  1  2  1  0
  2  3  2  3
  3  4  1  0
  4  5  2  3
  5  6  1  0
  5  7  1  0
  7  8  1  0
  7  9  1  0
  9 10  1  0
 10 11  2  0
 11 12  1  0
 12 13  2  0
 13 14  1  0
 14 15  2  0
 15 16  1  0
 16 17  1  0
 17 18  2  3
 18 19  1  0
 19 20  1  0
 20 21  1  6
 20 22  1  0
 22 23  1  0
 23 24  1  0
 24 25  1  0
 24 26  1  0
 26 27  1  0
 27 28  2  0
 28 29  1  0
 29 30  2  0
 30 31  1  0
 31 32  2  0
 32 33  1  0
 33 34  1  0
 34 35  1  0
 35 36  1  0
 36 37  1  0
 37 38  1  0
 38 39  3  0
 39 40  1  0
 40 41  1  0
 41 42  1  0
 41 43  1  0
 43 44  1  0
 44 45  1  0
 45 46  1  0
 46 47  1  0
 47 48  1  0
 48 49  1  6
 49 50  1  0
 15 10  1  0
 32 27  1  0
 48 44  1  0
M  END
$$$$
