
     RDKit          3D

 14 14  0  0  0  0  0  0  0  0999 V2000
    2.6756    0.1408   -1.8828 O   0  0  0  0  0  0  0  0  0  0  0  0
    2.3883    1.1636   -0.9688 C   0  0  0  0  0  0  0  0  0  0  0  0
    1.1448    0.7471   -0.2237 C   0  0  1  0  0  0  0  0  0  0  0  0
    0.0253    0.5638   -1.1307 N   0  0  0  0  0  0  0  0  0  0  0  0
   -1.1737    0.6598   -0.3500 C   0  0  2  0  0  0  0  0  0  0  0  0
   -1.1441    1.7624    0.6716 C   0  0  0  0  0  0  0  0  0  0  0  0
   -0.9664    2.9731   -0.0213 O   0  0  0  0  0  0  0  0  0  0  0  0
   -1.6990   -0.6235    0.1551 C   0  0  1  0  0  0  0  0  0  0  0  0
   -2.2000   -1.3711   -0.8993 O   0  0  0  0  0  0  0  0  0  0  0  0
   -0.8777   -1.3863    1.0890 C   0  0  2  0  0  0  0  0  0  0  0  0
   -1.6192   -1.5719    2.2734 O   0  0  0  0  0  0  0  0  0  0  0  0
    0.4487   -0.8737    1.4529 C   0  0  0  0  0  3  0  0  0  0  0  0
    1.4209   -0.6054    0.3989 C   0  0  1  0  0  0  0  0  0  0  0  0
    1.5765   -1.5787   -0.5643 O   0  0  0  0  0  0  0  0  0  0  0  0
  1  2  1  0
  3  2  1  6
  3  4  1  0
  4  5  1  0
  5  6  1  1
  6  7  1  0
  5  8  1  0
  8  9  1  6
  8 10  1  0
 10 11  1  1
 10 12  1  0
 12 13  1  0
 13 14  1  6
 13  3  1  0
M  RAD  1  12   2
M  END
$$$$
