
     RDKit          3D

 33 35  0  0  0  0  0  0  0  0999 V2000
    8.2915    0.8611   -1.0561 C   0  0  0  0  0  0  0  0  0  0  0  0
    6.9336    1.0009   -0.4786 C   0  0  0  0  0  0  0  0  0  0  0  0
    6.1327    1.9027   -0.8485 O   0  0  0  0  0  0  0  0  0  0  0  0
    6.5440    0.0997    0.5034 O   0  0  0  0  0  0  0  0  0  0  0  0
    5.2628    0.2333    1.0468 C   0  0  0  0  0  3  0  0  0  0  0  0
    5.2326    1.1326    2.2452 C   0  0  0  0  0  0  0  0  0  0  0  0
    5.7660    0.7750    3.3009 O   0  0  0  0  0  0  0  0  0  0  0  0
    4.6950   -1.0987    1.4941 C   0  0  0  0  0  0  0  0  0  0  0  0
    3.2731   -0.8183    1.9744 C   0  0  0  0  0  0  0  0  0  0  0  0
    2.5197   -0.2405    0.7935 C   0  0  0  0  0  3  0  0  0  0  0  0
    1.1298    0.0444    1.2266 C   0  0  2  0  0  0  0  0  0  0  0  0
    0.3615   -1.1514    1.7094 C   0  0  0  0  0  0  0  0  0  0  0  0
   -0.3838   -1.8830    0.6109 C   0  0  2  0  0  0  0  0  0  0  0  0
    0.6560   -2.7470   -0.1033 C   0  0  0  0  0  0  0  0  0  0  0  0
   -1.0007   -0.8924   -0.2305 C   0  0  0  0  0  0  0  0  0  0  0  0
   -2.0953   -0.4159   -0.7139 C   0  0  0  0  0  0  0  0  0  0  0  0
   -2.2132   -0.7216   -2.1293 C   0  0  0  0  0  0  0  0  0  0  0  0
   -3.3032   -0.7074   -2.7294 O   0  0  0  0  0  0  0  0  0  0  0  0
   -0.8859   -1.0605   -2.8318 C   0  0  0  0  0  0  0  0  0  0  0  0
    0.3560   -0.7466   -1.9879 C   0  0  0  0  0  0  0  0  0  0  0  0
    0.0097    0.1174   -0.9524 C   0  0  1  0  0  0  0  0  0  0  0  0
   -0.8055    1.1798   -1.7732 C   0  0  0  0  0  0  0  0  0  0  0  0
    0.3470    0.8438    0.1792 C   0  0  1  0  0  0  0  0  0  0  0  0
   -0.8379    1.3474    0.9270 C   0  0  0  0  0  0  0  0  0  0  0  0
   -2.1208    1.7594    0.3604 C   0  0  0  0  0  0  0  0  0  0  0  0
   -2.9786    0.5115   -0.0596 C   0  0  0  0  0  3  0  0  0  0  0  0
   -4.3180    0.7724   -0.4002 C   0  0  0  0  0  0  0  0  0  0  0  0
   -5.0920   -0.4834   -0.7159 C   0  0  0  0  0  0  0  0  0  0  0  0
   -5.1507   -1.4381    0.3927 C   0  0  0  0  0  0  0  0  0  0  0  0
   -5.7546   -1.2579    1.4186 O   0  0  0  0  0  0  0  0  0  0  0  0
   -6.4212   -0.1986   -1.3496 C   0  0  0  0  0  0  0  0  0  0  0  0
   -7.2578    0.6139   -0.4582 C   0  0  0  0  0  0  0  0  0  0  0  0
   -6.8915    0.9865    0.6354 O   0  0  0  0  0  0  0  0  0  0  0  0
  1  2  1  0
  2  3  2  0
  2  4  1  0
  4  5  1  0
  5  6  1  0
  6  7  2  0
  5  8  1  0
  8  9  1  0
  9 10  1  0
 11 10  1  6
 11 12  1  0
 12 13  1  0
 13 14  1  6
 13 15  1  0
 15 16  2  0
 16 17  1  0
 17 18  2  0
 17 19  1  0
 19 20  1  0
 20 21  1  0
 21 22  1  6
 21 23  1  0
 23 24  1  1
 24 25  1  0
 25 26  1  0
 26 27  1  0
 27 28  1  0
 28 29  1  0
 29 30  2  0
 28 31  1  0
 31 32  1  0
 32 33  2  0
 23 11  1  0
 21 15  1  0
 26 16  1  0
M  RAD  3   5   2  10   2  26   2
M  END
$$$$
