
     RDKit          3D

  8  8  0  0  0  0  0  0  0  0999 V2000
    0.0597    0.3106    0.4791 C   0  0  0  0  0  0  0  0  0  0  0  0
   -0.4713    0.5934    0.7925 C   0  0  0  0  0  0  0  0  0  0  0  0
   -1.2554    1.0187    1.2393 N   0  0  0  0  0  0  0  0  0  0  0  0
   -1.7216   -0.0140   -0.3643 C   0  0  0  0  0  0  0  0  0  0  0  0
   -0.5635   -0.5778   -0.9559 N   0  0  0  0  0  0  0  0  0  0  0  0
    0.9665   -0.1879   -0.0576 C   0  0  0  0  0  0  0  0  0  0  0  0
    1.5865    0.4530   -1.3042 C   0  0  0  0  0  0  0  0  0  0  0  0
    1.3991   -1.5959    0.1709 C   0  0  0  0  0  0  0  0  0  0  0  0
  1  2  3  0
  2  3  1  0
  3  4  1  0
  4  5  2  0
  5  6  1  0
  6  7  1  0
  6  8  1  0
  6  1  1  0
M  END
$$$$
