
     RDKit          3D

 28 28  0  0  0  0  0  0  0  0999 V2000
    5.1732    0.8102   -1.1428 C   0  0  0  0  0  0  0  0  0  0  0  0
    5.9772    0.4311    0.0899 C   0  0  0  0  0  0  0  0  0  0  0  0
    5.2678    1.0116    1.3093 C   0  0  0  0  0  0  0  0  0  0  0  0
    5.9373   -1.0703    0.2211 C   0  0  0  0  0  0  0  0  0  0  0  0
    4.4950   -1.4944    0.3672 C   0  0  0  0  0  0  0  0  0  0  0  0
    3.7307   -1.0594   -0.8457 C   0  0  0  0  0  0  0  0  0  0  0  0
    2.2975   -1.4861   -0.6902 C   0  0  1  0  0  0  0  0  0  0  0  0
    2.1577   -2.9625   -0.5497 C   0  0  0  0  0  0  0  0  0  0  0  0
    1.6619   -0.7223    0.4427 C   0  0  1  0  0  0  0  0  0  0  0  0
    1.6717    0.7543    0.2284 C   0  0  0  0  0  0  0  0  0  0  0  0
    0.6590    1.4723    1.0664 C   0  0  0  0  0  0  0  0  0  0  0  0
   -0.3576    2.1671    0.1810 C   0  0  2  0  0  0  0  0  0  0  0  0
   -0.0009    3.6365    0.0003 C   0  0  0  0  0  0  0  0  0  0  0  0
   -1.7053    2.0056    0.8529 C   0  0  0  0  0  0  0  0  0  0  0  0
   -2.7239    2.9877    0.3688 C   0  0  0  0  0  0  0  0  0  0  0  0
   -2.2879    3.5760   -0.9440 C   0  0  0  0  0  0  0  0  0  0  0  0
   -4.1099    2.4307    0.2977 C   0  0  0  0  0  0  0  0  0  0  0  0
   -4.2219    1.0918    0.9957 C   0  0  0  0  0  0  0  0  0  0  0  0
   -4.1475   -0.0256    0.0010 C   0  0  0  0  0  0  0  0  0  0  0  0
   -4.5052    0.3419   -1.2807 O   0  0  0  0  0  0  0  0  0  0  0  0
   -4.8272   -1.2832    0.4653 C   0  0  0  0  0  0  0  0  0  0  0  0
   -3.8741   -2.4396    0.2485 C   0  0  0  0  0  0  0  0  0  0  0  0
   -2.4612   -2.0954    0.6671 C   0  0  0  0  0  0  0  0  0  0  0  0
   -2.4230   -1.1658    1.8523 C   0  0  0  0  0  0  0  0  0  0  0  0
   -1.6890   -1.6470   -0.3954 O   0  0  0  0  0  0  0  0  0  0  0  0
   -0.3648   -2.0464   -0.2210 C   0  0  0  0  0  0  0  0  0  0  0  0
    0.3256   -1.2662    0.8427 C   0  0  0  0  0  0  0  0  0  0  0  0
    0.3448   -1.9528    2.1849 C   0  0  0  0  0  0  0  0  0  0  0  0
  1  2  1  0
  2  3  1  0
  2  4  1  0
  4  5  1  0
  5  6  1  0
  6  7  1  0
  7  8  1  1
  7  9  1  0
  9 10  1  6
 10 11  1  0
 11 12  1  0
 12 13  1  1
 12 14  1  0
 14 15  1  0
 15 16  1  0
 15 17  1  0
 17 18  1  0
 18 19  1  0
 19 20  1  0
 19 21  1  0
 21 22  1  0
 22 23  1  0
 23 24  1  0
 23 25  1  0
 25 26  1  0
 26 27  1  0
 27 28  1  0
 27  9  1  0
M  END
$$$$
