
     RDKit          3D

 18 18  0  0  0  0  0  0  0  0999 V2000
    4.2082    1.0789   -0.1154 C   0  0  0  0  0  0  0  0  0  0  0  0
    4.9393    0.2154   -0.9341 O   0  0  0  0  0  0  0  0  0  0  0  0
    4.0566   -0.8139   -1.3290 C   0  0  0  0  0  3  0  0  0  0  0  0
    3.7650   -1.5330   -0.1651 O   0  0  0  0  0  0  0  0  0  0  0  0
    2.7455   -0.9203    0.5662 C   0  0  2  0  0  0  0  0  0  0  0  0
    2.5234   -1.7904    1.8034 C   0  0  0  0  0  0  0  0  0  0  0  0
    1.5128   -0.9559   -0.2903 C   0  0  0  0  0  3  0  0  0  0  0  0
    0.2806   -0.4333    0.4196 C   0  0  1  0  0  0  0  0  0  0  0  0
    0.4596    0.9463    0.8423 N   0  0  0  0  0  0  0  0  0  0  0  0
    0.6542    1.8196   -0.3122 C   0  0  0  0  0  2  0  0  0  0  0  0
   -0.8449   -0.5565   -0.5856 C   0  0  0  0  0  0  0  0  0  0  0  0
   -2.1535   -0.1096   -0.1278 C   0  0  0  0  0  0  0  0  0  0  0  0
   -2.3429    1.2791    0.2968 C   0  0  0  0  0  0  0  0  0  0  0  0
   -3.1480    2.0523   -0.7268 C   0  0  0  0  0  3  0  0  0  0  0  0
   -4.5383    1.4915   -0.9179 C   0  0  0  0  0  0  0  0  0  0  0  0
   -4.5322   -0.0048   -1.1391 C   0  0  0  0  0  3  0  0  0  0  0  0
   -4.4468   -0.6465    0.0934 O   0  0  0  0  0  0  0  0  0  0  0  0
   -3.1387   -1.1190    0.2985 C   0  0  0  0  0  3  0  0  0  0  0  0
  1  2  1  0
  2  3  1  0
  3  4  1  0
  4  5  1  0
  5  6  1  1
  5  7  1  0
  8  7  1  6
  8  9  1  0
  9 10  1  0
  8 11  1  0
 11 12  1  0
 12 13  1  0
 13 14  1  0
 14 15  1  0
 15 16  1  0
 16 17  1  0
 12 18  1  0
 18 17  1  0
M  RAD  6   3   2   7   2  10   3  14   2  16   2  18   2
M  END
$$$$
