
     RDKit          3D

 10 12  0  0  0  0  0  0  0  0999 V2000
    1.5916    0.3432   -0.3652 C   0  0  0  0  0  0  0  0  0  0  0  0
    2.7363    0.1792    0.2410 C   0  0  0  0  0  0  0  0  0  0  0  0
    2.2077   -0.8395    0.8200 N   0  0  0  0  0  0  0  0  0  0  0  0
    0.9256   -0.1907    0.9193 C   0  0  0  0  0  3  0  0  0  0  0  0
    0.1210    0.1953   -0.2108 C   0  0  0  0  0  0  0  0  0  0  0  0
   -0.7097    1.4436   -0.1894 C   0  0  0  0  0  0  0  0  0  0  0  0
   -2.1343    1.1304    0.1379 C   0  0  0  0  0  0  0  0  0  0  0  0
   -2.3365   -0.3387    0.4531 C   0  0  0  0  0  2  0  0  0  0  0  0
   -1.8314   -1.0967   -0.7305 C   0  0  0  0  0  0  0  0  0  0  0  0
   -0.5701   -0.8261   -1.0755 C   0  0  0  0  0  0  0  0  0  0  0  0
  1  2  2  0
  2  3  2  0
  3  4  1  0
  4  5  1  0
  5  6  1  0
  6  7  1  0
  7  8  1  0
  8  9  1  0
  9 10  2  0
  4  1  1  0
  5  1  1  0
 10  5  1  0
M  RAD  2   4   2   8   3
M  END
$$$$
