
     RDKit          3D

 11 11  0  0  0  0  0  0  0  0999 V2000
    3.0468   -0.3669    0.3875 O   0  0  0  0  0  0  0  0  0  0  0  0
    2.2615    0.6520   -0.1478 C   0  0  0  0  0  0  0  0  0  0  0  0
    0.8942    0.1661   -0.5431 C   0  0  2  0  0  0  0  0  0  0  0  0
    0.1407    1.2156   -1.0738 N   0  0  0  0  0  0  0  0  0  0  0  0
   -1.0700    1.5797   -0.4957 C   0  0  0  0  0  0  0  0  0  0  0  0
   -1.8222    0.5609    0.2736 C   0  0  2  0  0  0  0  0  0  0  0  0
   -1.8499    0.9076    1.6212 O   0  0  0  0  0  0  0  0  0  0  0  0
   -1.2202   -0.8210    0.1523 C   0  0  1  0  0  0  0  0  0  0  0  0
   -1.4078   -1.2300   -1.1742 O   0  0  0  0  0  0  0  0  0  0  0  0
    0.2433   -0.6831    0.4970 C   0  0  1  0  0  0  0  0  0  0  0  0
    0.7836   -1.9808    0.5030 O   0  0  0  0  0  0  0  0  0  0  0  0
  1  2  1  0
  3  2  1  1
  3  4  1  0
  4  5  1  0
  5  6  1  0
  6  7  1  1
  6  8  1  0
  8  9  1  6
  8 10  1  0
 10 11  1  6
 10  3  1  0
M  END
$$$$
