
     RDKit          3D

 35 36  0  0  0  0  0  0  0  0999 V2000
    2.8478    0.9791   -1.9238 C   0  0  0  0  0  0  0  0  0  0  0  0
    2.6029    1.5591   -0.5483 C   0  0  1  0  0  0  0  0  0  0  0  0
    1.1370    1.8775   -0.3462 C   0  0  0  0  0  0  0  0  0  0  0  0
    0.3298    0.9296   -1.1823 C   0  0  2  0  0  0  0  0  0  0  0  0
   -0.9979    0.8224   -0.7201 O   0  0  0  0  0  0  0  0  0  0  0  0
    0.9717   -0.3880   -1.4119 C   0  0  2  0  0  0  0  0  0  0  0  0
    0.0721   -1.2123   -2.0830 O   0  0  0  0  0  0  0  0  0  0  0  0
    1.4600   -1.0942   -0.2083 C   0  0  1  0  0  0  0  0  0  0  0  0
    1.8730   -0.2737    0.8227 O   0  0  0  0  0  0  0  0  0  0  0  0
    2.9644    0.5144    0.4850 C   0  0  1  0  0  0  0  0  0  0  0  0
    4.0891   -0.2273    0.0222 N   0  0  0  0  0  0  0  0  0  0  0  0
    5.2127    0.6763   -0.1122 C   0  0  0  0  0  3  0  0  0  0  0  0
    5.3767    1.5284    1.1211 C   0  0  0  0  0  0  0  0  0  0  0  0
    4.6245    2.8309    1.0651 C   0  0  0  0  0  2  0  0  0  0  0  0
    5.5364    3.9028    1.1975 O   0  0  0  0  0  0  0  0  0  0  0  0
    0.3859   -2.0180    0.3103 C   0  0  1  0  0  0  0  0  0  0  0  0
    0.8554   -3.2672    0.6655 O   0  0  0  0  0  0  0  0  0  0  0  0
   -0.4664   -1.3696    1.3498 C   0  0  1  0  0  0  0  0  0  0  0  0
   -1.8221   -1.5286    1.1226 O   0  0  0  0  0  0  0  0  0  0  0  0
   -0.1538   -1.9157    2.7244 C   0  0  2  0  0  0  0  0  0  0  0  0
   -0.1326   -3.2946    2.7355 O   0  0  0  0  0  0  0  0  0  0  0  0
   -1.1696   -1.4527    3.7442 C   0  0  0  0  0  3  0  0  0  0  0  0
   -1.9507   -0.2507    3.2576 C   0  0  0  0  0  0  0  0  0  0  0  0
   -3.2653   -0.1283    3.9858 C   0  0  0  0  0  3  0  0  0  0  0  0
   -4.2971   -0.1245    3.0407 O   0  0  0  0  0  0  0  0  0  0  0  0
   -4.0015    0.7380    1.9930 C   0  0  0  0  0  3  0  0  0  0  0  0
   -4.7530    0.3730    0.8657 O   0  0  0  0  0  0  0  0  0  0  0  0
   -4.2690    1.0798   -0.2301 C   0  0  0  0  0  3  0  0  0  0  0  0
   -4.4212    0.2801   -1.3642 O   0  0  0  0  0  0  0  0  0  0  0  0
   -3.8205    0.8776   -2.4515 C   0  0  0  0  0  0  0  0  0  0  0  0
   -2.9934   -0.0162   -3.0988 O   0  0  0  0  0  0  0  0  0  0  0  0
   -2.1040    0.6442   -3.9408 C   0  0  0  0  0  3  0  0  0  0  0  0
   -0.6884    0.6144   -3.4616 C   0  0  0  0  0  3  0  0  0  0  0  0
   -0.1384   -0.7943   -3.3940 C   0  0  1  0  0  0  0  0  0  0  0  0
    1.1056   -0.8719   -4.0313 O   0  0  0  0  0  0  0  0  0  0  0  0
  2  1  1  6
  2  3  1  0
  3  4  1  0
  4  5  1  1
  4  6  1  0
  6  7  1  1
  6  8  1  0
  8  9  1  1
  9 10  1  0
 10 11  1  6
 11 12  1  0
 12 13  1  0
 13 14  1  0
 14 15  1  0
  8 16  1  0
 16 17  1  1
 16 18  1  0
 18 19  1  6
 18 20  1  0
 20 21  1  6
 20 22  1  0
 22 23  1  0
 23 24  1  0
 24 25  1  0
 25 26  1  0
 26 27  1  0
 27 28  1  0
 28 29  1  0
 29 30  1  0
 30 31  1  0
 31 32  1  0
 32 33  1  0
 33 34  1  0
 34 35  1  6
 10  2  1  0
 34  7  1  0
M  RAD  8  12   2  14   3  22   2  24   2  26   2  28   2  32   2  33   2
M  END
$$$$
