
     RDKit          3D

 19 20  0  0  0  0  0  0  0  0999 V2000
    5.9276    0.5905    0.6625 C   0  0  0  0  0  0  0  0  0  0  0  0
    5.0709    0.9207   -0.4909 O   0  0  0  0  0  0  0  0  0  0  0  0
    4.1859   -0.2947   -0.4117 C   0  0  0  0  0  3  0  0  0  0  0  0
    3.2836    0.1428    0.5925 O   0  0  0  0  0  0  0  0  0  0  0  0
    2.0454    0.4990    0.0970 C   0  0  2  0  0  0  0  0  0  0  0  0
    2.0004    2.0735    0.2865 C   0  0  0  0  0  0  0  0  0  0  0  0
    0.9771   -0.0125    1.0323 C   0  0  0  0  0  3  0  0  0  0  0  0
   -0.4721    0.2838    0.4791 C   0  0  1  0  0  0  0  0  0  0  0  0
   -0.7793   -0.6885   -0.5650 C   0  0  1  0  0  0  0  0  0  0  0  0
   -0.2094   -1.9878   -0.6055 C   0  0  0  0  0  0  0  0  0  0  0  0
   -0.7528   -3.1726   -0.1274 C   0  0  0  0  0  0  0  0  0  0  0  0
    0.0039   -4.4206   -0.2772 C   0  0  0  0  0  0  0  0  0  0  0  0
   -1.4526   -0.1870    1.3643 O   0  0  0  0  0  0  0  0  0  0  0  0
   -2.0900   -0.6785    0.2143 C   0  0  1  0  0  0  0  0  0  0  0  0
   -3.0709    0.3536   -0.3433 C   0  0  1  0  0  0  0  0  0  0  0  0
   -4.0165    0.6271    0.6707 O   0  0  0  0  0  0  0  0  0  0  0  0
   -4.6561    1.7933    0.1964 C   0  0  0  0  0  3  0  0  0  0  0  0
   -3.4987    2.5559   -0.4825 C   0  0  0  0  0  0  0  0  0  0  0  0
   -2.4962    1.6019   -0.6011 O   0  0  0  0  0  0  0  0  0  0  0  0
  1  2  1  0
  2  3  1  0
  3  4  1  0
  4  5  1  0
  5  6  1  1
  5  7  1  0
  8  7  1  1
  8  9  1  0
  9 10  1  1
 10 11  2  3
 11 12  1  0
  8 13  1  0
 14 13  1  1
 14 15  1  0
 15 16  1  1
 16 17  1  0
 17 18  1  0
 18 19  1  0
 14  9  1  0
 19 15  1  0
M  RAD  3   3   2   7   2  17   2
M  END
$$$$
