
     RDKit          3D

 24 23  0  0  0  0  0  0  0  0999 V2000
   -7.3956    0.1330    0.6407 C   0  0  0  0  0  0  0  0  0  0  0  0
   -5.9669   -0.4492    0.7118 C   0  0  0  0  0  0  0  0  0  0  0  0
   -5.5176   -0.2806    2.1316 C   0  0  0  0  0  0  0  0  0  0  0  0
   -6.1340   -1.8089    0.4437 O   0  0  0  0  0  0  0  0  0  0  0  0
   -5.1726    0.2694   -0.2976 C   0  0  0  0  0  0  0  0  0  0  0  0
   -3.7674   -0.0449   -0.4996 C   0  0  0  0  0  0  0  0  0  0  0  0
   -2.7993    0.1294    0.5557 C   0  0  0  0  0  0  0  0  0  0  0  0
   -3.0428    0.5874    1.6486 O   0  0  0  0  0  0  0  0  0  0  0  0
   -1.3765   -0.2878    0.2846 C   0  0  0  0  0  0  0  0  0  0  0  0
   -0.5245   -0.0269    1.5053 C   0  0  0  0  0  0  0  0  0  0  0  0
   -1.3535   -1.7518   -0.0667 C   0  0  0  0  0  2  0  0  0  0  0  0
   -0.7811    0.4852   -0.8697 C   0  0  0  0  0  0  0  0  0  0  0  0
    0.6360   -0.0163   -1.0444 C   0  0  2  0  0  0  0  0  0  0  0  0
    0.6436   -1.3664   -1.3195 O   0  0  0  0  0  0  0  0  0  0  0  0
    1.3684    0.2609    0.1029 O   0  0  0  0  0  0  0  0  0  0  0  0
    2.6321   -0.1517    0.0233 N   0  0  0  0  0  4  0  0  0  0  0  0
    3.3796    0.4445    1.1357 C   0  0  0  0  0  0  0  0  0  0  0  0
    2.6960   -1.6067    0.2171 C   0  0  0  0  0  0  0  0  0  0  0  0
    3.2937    0.1419   -1.2138 C   0  0  0  0  0  0  0  0  0  0  0  0
    4.0148    1.4549   -1.2234 C   0  0  0  0  0  3  0  0  0  0  0  0
    5.4255    1.3454   -0.7696 C   0  0  0  0  0  0  0  0  0  0  0  0
    5.7273    1.8272    0.4964 O   0  0  0  0  0  1  0  0  0  0  0  0
    6.3596    0.8150   -1.5286 C   0  0  0  0  0  0  0  0  0  0  0  0
    7.6551    0.7351   -1.0644 O   0  0  0  0  0  1  0  0  0  0  0  0
  1  2  1  0
  2  3  1  0
  2  4  1  0
  2  5  1  0
  5  6  1  0
  6  7  1  0
  7  8  2  0
  7  9  1  0
  9 10  1  0
  9 11  1  0
  9 12  1  0
 12 13  1  0
 13 14  1  1
 13 15  1  0
 15 16  1  0
 16 17  1  0
 16 18  1  0
 16 19  1  0
 19 20  1  0
 20 21  1  0
 21 22  1  0
 21 23  2  3
 23 24  1  0
M  CHG  3  16   1  22  -1  24  -1
M  RAD  2  11   3  20   2
M  END
$$$$
