
     RDKit          3D

  8  8  0  0  0  0  0  0  0  0999 V2000
   -0.1953   -1.5930   -0.1787 C   0  0  0  0  0  0  0  0  0  0  0  0
    1.0088   -1.0042   -0.5659 O   0  0  0  0  0  0  0  0  0  0  0  0
    1.5183   -0.2087    0.4548 C   0  0  0  0  0  3  0  0  0  0  0  0
    0.9533    1.1785    0.4489 C   0  0  0  0  0  0  0  0  0  0  0  0
    0.1185    1.5070   -0.7332 C   0  0  0  0  0  0  0  0  0  0  0  0
   -1.0599    0.6198   -0.9462 C   0  0  0  0  0  3  0  0  0  0  0  0
   -1.1956   -0.4879    0.0471 C   0  0  2  0  0  0  0  0  0  0  0  0
   -1.1481   -0.0116    1.4731 C   0  0  0  0  0  2  0  0  0  0  0  0
  1  2  1  0
  2  3  1  0
  3  4  1  0
  4  5  1  0
  5  6  1  0
  6  7  1  0
  7  8  1  1
  7  1  1  0
M  RAD  3   3   2   6   2   8   3
M  END
$$$$
