
     RDKit          3D

 40 42  0  0  0  0  0  0  0  0999 V2000
   -2.7998   -3.3617   -1.3380 C   0  0  0  0  0  0  0  0  0  0  0  0
   -2.9822   -2.9536    0.0429 N   0  0  0  0  0  0  0  0  0  0  0  0
   -3.7587   -3.5394    0.9241 N   0  0  0  0  0  0  0  0  0  0  0  0
   -3.7027   -2.8916    2.0508 N   0  0  0  0  0  0  0  0  0  0  0  0
   -2.8797   -1.8717    1.9017 N   0  0  0  0  0  0  0  0  0  0  0  0
   -2.4109   -1.8934    0.6347 C   0  0  0  0  0  0  0  0  0  0  0  0
   -1.4551   -0.9417    0.1075 C   0  0  0  0  0  0  0  0  0  0  0  0
   -1.7713    0.4794    0.2423 C   0  0  0  0  0  0  0  0  0  0  0  0
   -2.8708    0.9072    0.8060 C   0  0  0  0  0  0  0  0  0  0  0  0
   -3.1910    2.3631    0.9433 C   0  0  1  0  0  0  0  0  0  0  0  0
   -3.1071    2.9879   -0.2953 O   0  0  0  0  0  0  0  0  0  0  0  0
   -4.6238    2.4724    1.4532 C   0  0  0  0  0  0  0  0  0  0  0  0
   -5.5306    1.8009    0.4309 C   0  0  1  0  0  0  0  0  0  0  0  0
   -6.8511    1.8967    0.8892 O   0  0  0  0  0  0  0  0  0  0  0  0
   -5.4144    2.6133   -0.8444 C   0  0  0  0  0  0  0  0  0  0  0  0
   -5.8453    4.0135   -0.6089 C   0  0  0  0  0  0  0  0  0  0  0  0
   -6.2372    4.3447    0.5432 O   0  0  0  0  0  0  0  0  0  0  0  0
   -5.8062    4.9189   -1.6572 O   0  0  0  0  0  1  0  0  0  0  0  0
   -0.3363   -1.3061   -0.4695 C   0  0  0  0  0  0  0  0  0  0  0  0
    0.0658   -2.6860   -0.6334 C   0  0  0  0  0  0  0  0  0  0  0  0
   -0.0734   -3.5500    0.4631 C   0  0  0  0  0  0  0  0  0  0  0  0
    0.2963   -4.8708    0.3495 C   0  0  0  0  0  0  0  0  0  0  0  0
    0.8114   -5.4086   -0.8166 C   0  0  0  0  0  0  0  0  0  0  0  0
    1.1519   -6.7205   -0.8455 F   0  0  0  0  0  0  0  0  0  0  0  0
    0.9466   -4.5558   -1.8916 C   0  0  0  0  0  0  0  0  0  0  0  0
    0.5775   -3.2203   -1.7919 C   0  0  0  0  0  0  0  0  0  0  0  0
    0.5934   -0.2943   -1.0003 C   0  0  0  0  0  0  0  0  0  0  0  0
    1.7140   -0.1666   -0.3389 C   0  0  0  0  0  0  0  0  0  0  0  0
    2.9764    0.0241   -0.0778 C   0  0  0  0  0  0  0  0  0  0  0  0
    4.2178    0.3948    0.0267 C   0  0  0  0  0  0  0  0  0  0  0  0
    5.4773   -0.6159   -0.6429 Cl  0  0  0  0  0  0  0  0  0  0  0  0
    4.5853    1.6433    0.6944 C   0  0  0  0  0  0  0  0  0  0  0  0
    3.4081    2.4114    1.2391 C   0  0  0  0  0  0  0  0  0  0  0  0
    3.1765    3.3353    0.1139 N   0  0  0  0  0  0  0  0  0  0  0  0
    4.4437    3.5504   -0.4616 N   0  0  0  0  0  0  0  0  0  0  0  0
    5.2711    2.6190   -0.1593 C   0  0  0  0  0  0  0  0  0  0  0  0
    6.7111    2.5583   -0.6207 C   0  0  0  0  0  0  0  0  0  0  0  0
    7.5894    2.5581    0.5628 C   0  0  0  0  0  0  0  0  0  0  0  0
    8.3920    1.5042    0.7177 C   0  0  0  0  0  0  0  0  0  0  0  0
    9.2419    1.4511    1.8168 O   0  0  0  0  0  0  0  0  0  0  0  0
  1  2  1  0
  2  3  1  0
  3  4  2  0
  4  5  1  0
  5  6  2  0
  6  7  1  0
  7  8  1  0
  8  9  2  0
  9 10  1  0
 10 11  1  6
 10 12  1  0
 12 13  1  0
 13 14  1  1
 13 15  1  0
 15 16  1  0
 16 17  2  0
 16 18  1  0
  7 19  2  0
 19 20  1  0
 20 21  2  0
 21 22  1  0
 22 23  2  0
 23 24  1  0
 23 25  1  0
 25 26  2  0
 19 27  1  0
 27 28  2  0
 28 29  2  0
 29 30  2  0
 30 31  1  0
 30 32  1  0
 32 33  1  0
 33 34  1  0
 34 35  1  0
 35 36  2  0
 36 37  1  0
 37 38  1  0
 38 39  2  3
 39 40  1  0
  6  2  1  0
 26 20  1  0
 36 32  1  0
M  CHG  1  18  -1
M  END
$$$$
