
     RDKit          3D

 13 13  0  0  0  0  0  0  0  0999 V2000
   -2.4001    0.7531    0.4475 O   0  0  0  0  0  0  0  0  0  0  0  0
   -2.2053   -0.5781   -0.0108 S   0  0  0  0  0  0  0  0  0  0  0  0
   -1.3624   -0.3164   -2.2138 S   0  0  0  0  0  0  0  0  0  0  0  0
   -1.4622   -1.7648    0.4492 C   0  0  0  0  0  0  0  0  0  0  0  0
   -0.4173   -2.5408    0.5557 C   0  0  0  0  0  0  0  0  0  0  0  0
    1.1696   -2.2453   -0.1745 S   0  0  0  0  0  0  0  0  0  0  0  0
    1.5583   -0.5060   -0.3380 C   0  0  0  0  0  0  0  0  0  0  0  0
    2.3214   -0.1853   -1.5999 C   0  0  0  0  0  0  0  0  0  0  0  0
    2.1867    0.0470    0.8373 N   0  0  0  0  0  0  0  0  0  0  0  0
    1.7097    1.4303    0.9790 C   0  0  0  0  0  3  0  0  0  0  0  0
    1.0109    1.8485   -0.2056 N   0  0  0  0  0  0  0  0  0  0  0  0
   -0.5636    2.5248    0.1020 S   0  0  0  0  0  0  0  0  0  0  0  0
   -1.5457    1.5330    1.1719 N   0  0  0  0  0  0  0  0  0  0  0  0
  1  2  1  0
  2  3  1  0
  2  4  1  0
  4  5  2  3
  5  6  1  0
  6  7  1  0
  7  8  1  0
  7  9  1  0
  9 10  1  0
 10 11  1  0
 11 12  1  0
 12 13  1  0
 13  1  1  0
M  RAD  1  10   2
M  END
$$$$
