
     RDKit          3D

 12 11  0  0  0  0  0  0  0  0999 V2000
    4.3273    0.8979   -0.0491 O   0  0  0  0  0  0  0  0  0  0  0  0
    3.5743   -0.1692    0.3951 C   0  0  0  0  0  0  0  0  0  0  0  0
    2.5476   -0.5570   -0.6465 C   0  0  0  0  0  3  0  0  0  0  0  0
    1.3093    0.1705   -0.4250 N   0  0  0  0  0  0  0  0  0  0  0  0
    0.4161   -0.5700    0.3936 C   0  0  2  0  0  0  0  0  0  0  0  0
   -0.0036   -1.8678   -0.2543 C   0  0  0  0  0  0  0  0  0  0  0  0
   -0.5930    0.0805    1.0040 O   0  0  0  0  0  0  0  0  0  0  0  0
   -1.5121    0.7341    0.2623 C   0  0  1  0  0  0  0  0  0  0  0  0
   -1.0939    1.7420   -0.5579 O   0  0  0  0  0  0  0  0  0  0  0  0
   -2.4438   -0.1783   -0.5048 C   0  0  0  0  0  0  0  0  0  0  0  0
   -3.3266    0.6680   -1.2191 O   0  0  0  0  0  0  0  0  0  0  0  0
   -3.2015   -0.9508    0.3730 O   0  0  0  0  0  0  0  0  0  0  0  0
  1  2  1  0
  2  3  1  0
  3  4  1  0
  4  5  1  0
  5  6  1  6
  5  7  1  0
  7  8  1  0
  8  9  1  6
  8 10  1  0
 10 11  1  0
 10 12  1  0
M  RAD  1   3   2
M  END
$$$$
