
     RDKit          3D

 31 30  0  0  0  0  0  0  0  0999 V2000
   -4.3234    3.5475   -0.5753 C   0  0  0  0  0  0  0  0  0  0  0  0
   -5.0963    2.9891    0.4341 O   0  0  0  0  0  0  0  0  0  0  0  0
   -4.4036    1.9359    1.0174 C   0  0  0  0  0  3  0  0  0  0  0  0
   -5.1576    1.2305    1.9227 O   0  0  0  0  0  0  0  0  0  0  0  0
   -5.7478    0.0920    1.4600 C   0  0  2  0  0  0  0  0  0  0  0  0
   -6.5482   -0.5628    2.5355 C   0  0  0  0  0  0  0  0  0  0  0  0
   -4.8607   -0.9252    0.8360 C   0  0  0  0  0  3  0  0  0  0  0  0
   -3.9518   -0.4186   -0.2440 C   0  0  1  0  0  0  0  0  0  0  0  0
   -3.1912   -1.5935   -0.8008 C   0  0  0  0  0  3  0  0  0  0  0  0
   -2.3639   -2.3204    0.1934 C   0  0  0  0  0  0  0  0  0  0  0  0
   -1.3179   -1.4244    0.7708 C   0  0  0  0  0  0  0  0  0  0  0  0
   -1.8682   -0.2314    1.4752 C   0  0  0  0  0  0  0  0  0  0  0  0
   -0.3206   -1.1164   -0.1547 O   0  0  0  0  0  0  0  0  0  0  0  0
    0.5730   -0.3060    0.4600 N   0  0  0  0  0  0  0  0  0  0  0  0
    0.9800    0.6773   -0.5482 C   0  0  0  0  0  0  0  0  0  0  0  0
    1.9859    1.6318    0.0557 C   0  0  0  0  0  0  0  0  0  0  0  0
    3.1776    0.8508    0.5123 C   0  0  1  0  0  0  0  0  0  0  0  0
    2.7868   -0.0719    1.4538 O   0  0  0  0  0  0  0  0  0  0  0  0
    3.8881    0.2598   -0.6686 C   0  0  2  0  0  0  0  0  0  0  0  0
    3.1234   -0.6566   -1.3664 O   0  0  0  0  0  0  0  0  0  0  0  0
    5.1956   -0.3731   -0.2230 C   0  0  0  0  0  3  0  0  0  0  0  0
    5.9568    0.6520    0.3520 O   0  0  0  0  0  0  0  0  0  0  0  0
    7.2668    0.5752   -0.1135 C   0  0  0  0  0  0  0  0  0  0  0  0
    7.8715   -0.7442    0.2505 C   0  0  0  0  0  3  0  0  0  0  0  0
    9.2952   -0.7948   -0.2702 C   0  0  0  0  0  3  0  0  0  0  0  0
   10.0516    0.4767    0.1091 C   0  0  0  0  0  3  0  0  0  0  0  0
    9.5743    1.5473   -0.6563 O   0  0  0  0  0  0  0  0  0  0  0  0
   -4.6895    0.2421   -1.3830 C   0  0  0  0  0  0  0  0  0  0  0  0
   -5.6276   -0.7685   -1.9964 C   0  0  0  0  0  3  0  0  0  0  0  0
   -5.5462   -1.9820   -1.3562 O   0  0  0  0  0  0  0  0  0  0  0  0
   -6.7122   -2.4180   -0.9306 O   0  0  0  0  0  0  0  0  0  0  0  0
  1  2  1  0
  2  3  1  0
  3  4  1  0
  4  5  1  0
  5  6  1  1
  5  7  1  0
  8  7  1  1
  8  9  1  0
  9 10  1  0
 10 11  1  0
 11 12  1  0
 11 13  1  0
 13 14  1  0
 14 15  1  0
 15 16  1  0
 16 17  1  0
 17 18  1  1
 17 19  1  0
 19 20  1  1
 19 21  1  0
 21 22  1  0
 22 23  1  0
 23 24  1  0
 24 25  1  0
 25 26  1  0
 26 27  1  0
  8 28  1  0
 28 29  1  0
 29 30  1  0
 30 31  1  0
M  RAD  8   3   2   7   2   9   2  21   2  24   2  25   2  26   2  29   2
M  END
$$$$
