
     RDKit          3D

 33 40  0  0  0  0  0  0  0  0999 V2000
   -1.3357    1.0869    0.1821 C   0  0  0  0  0  0  0  0  0  0  0  0
   -2.5357    1.8787   -0.0246 C   0  0  0  0  0  0  0  0  0  0  0  0
   -2.5341    2.9143    0.6895 O   0  0  0  0  0  0  0  0  0  0  0  0
   -3.7199    1.8606   -0.7803 O   0  0  0  0  0  0  0  0  0  0  0  0
   -4.4720    0.8119   -1.4426 C   0  0  0  0  0  0  0  0  0  0  0  0
   -3.9687   -0.4674   -0.8851 C   0  0  0  0  0  0  0  0  0  0  0  0
   -4.7004   -0.6843    0.2518 C   0  0  0  0  0  0  0  0  0  0  0  0
   -3.9184   -1.2183    1.5081 C   0  0  2  0  0  0  0  0  0  0  0  0
   -2.4997   -0.4756    1.8327 C   0  0  2  0  0  0  0  0  0  0  0  0
   -3.3345    0.2859    1.5745 C   0  0  0  0  0  0  0  0  0  0  0  0
   -3.1416   -0.7945    0.8383 C   0  0  0  0  0  0  0  0  0  0  0  0
   -3.2492   -2.1785    1.0449 C   0  0  0  0  0  0  0  0  0  0  0  0
   -3.4308   -2.7253   -0.4036 C   0  0  0  0  0  3  0  0  0  0  0  0
   -2.8970   -1.5070   -1.2084 C   0  0  0  0  0  0  0  0  0  0  0  0
   -1.5909   -1.2036   -0.4989 C   0  0  0  0  0  3  0  0  0  0  0  0
   -1.5034   -0.3393    0.6585 C   0  0  0  0  0  0  0  0  0  0  0  0
   -0.1956   -0.5735    1.3834 C   0  0  0  0  0  2  0  0  0  0  0  0
    0.9505   -0.2050    1.0446 S   0  0  0  0  0  0  0  0  0  0  0  0
    1.6010   -0.9686   -0.9693 C   0  0  0  0  0  0  0  0  0  0  0  0
    2.8489   -1.2028   -0.6692 C   0  0  0  0  0  0  0  0  0  0  0  0
    3.6517   -1.7437   -1.7910 C   0  0  0  0  0  0  0  0  0  0  0  0
    4.9215   -2.0565   -1.6980 C   0  0  0  0  0  0  0  0  0  0  0  0
    5.6007   -1.8665   -0.4276 C   0  0  0  0  0  0  0  0  0  0  0  0
    4.9625   -1.3908    0.6016 C   0  0  0  0  0  0  0  0  0  0  0  0
    3.5534   -1.0097    0.5929 C   0  0  0  0  0  3  0  0  0  0  0  0
    3.3962    0.4381    1.0831 C   0  0  0  0  0  0  0  0  0  0  0  0
    4.6877    1.1484    0.6656 C   0  0  0  0  0  0  0  0  0  0  0  0
    4.3449    2.3716   -0.1262 C   0  0  0  0  0  3  0  0  0  0  0  0
    3.8103    1.9419   -1.4735 C   0  0  0  0  0  0  0  0  0  0  0  0
    2.3886    1.6183   -1.3517 C   0  0  0  0  0  0  0  0  0  0  0  0
    1.5392    2.0472   -0.4314 C   0  0  0  0  0  0  0  0  0  0  0  0
    0.9177    2.9414    1.0321 S   0  0  0  0  0  0  0  0  0  0  0  0
   -0.1470    1.2653   -0.8022 S   0  0  0  0  0  0  0  0  0  0  0  0
  1  2  1  0
  2  3  2  0
  2  4  1  0
  4  5  1  0
  5  6  1  0
  6  7  2  0
  8  7  1  6
  8  9  1  0
  9 10  1  6
 10 11  2  0
 11 12  1  0
 12 13  1  0
 13 14  1  0
 14 15  1  0
 15 16  1  0
 16 17  1  0
 17 18  1  0
 18 19  1  0
 19 20  2  3
 20 21  1  0
 21 22  2  0
 22 23  1  0
 23 24  2  0
 24 25  1  0
 25 26  1  0
 26 27  1  0
 27 28  1  0
 28 29  1  0
 29 30  1  0
 30 31  2  0
 31 32  1  0
 32 33  2  0
 16  1  1  0
 33  1  1  0
 14  6  1  0
 12  8  1  0
 16  9  1  0
 33 18  1  0
 25 20  1  0
 33 31  1  0
M  RAD  5  13   2  15   2  17   3  25   2  28   2
M  END
$$$$
