
     RDKit          3D

 23 25  0  0  0  0  0  0  0  0999 V2000
   -1.0717   -0.5085    2.0661 C   0  0  0  0  0  0  0  0  0  0  0  0
   -1.8670   -0.4977    0.7832 C   0  0  1  0  0  0  0  0  0  0  0  0
   -3.2690   -0.1372    0.9073 C   0  0  0  0  0  0  0  0  0  0  0  0
   -3.7470    1.1150    0.3146 C   0  0  2  0  0  0  0  0  0  0  0  0
   -4.9958    0.8680   -0.3020 O   0  0  0  0  0  0  0  0  0  0  0  0
   -2.8734    1.7616   -0.6923 C   0  0  2  0  0  0  0  0  0  0  0  0
   -3.0334    1.0631   -1.9113 O   0  0  0  0  0  0  0  0  0  0  0  0
   -1.3938    1.6308   -0.3096 C   0  0  1  0  0  0  0  0  0  0  0  0
   -1.2667    2.2174    0.9511 O   0  0  0  0  0  0  0  0  0  0  0  0
   -1.0936    0.1701   -0.3085 C   0  0  1  0  0  0  0  0  0  0  0  0
    0.2869   -0.1101   -0.2988 N   0  0  0  0  0  0  0  0  0  0  0  0
    1.1313    0.9406    0.1932 C   0  0  0  0  0  3  0  0  0  0  0  0
    2.4288    1.0878   -0.4845 C   0  0  0  0  0  0  0  0  0  0  0  0
    2.4012    1.5135   -1.8775 C   0  0  0  0  0  0  0  0  0  0  0  0
    3.1780    1.1493   -2.7163 O   0  0  0  0  0  0  0  0  0  0  0  0
    3.4168    0.2149   -0.1388 O   0  0  0  0  0  0  0  0  0  0  0  0
    3.0671   -1.1021   -0.3293 C   0  0  1  0  0  0  0  0  0  0  0  0
    4.1571   -1.9616   -0.3336 O   0  0  0  0  0  0  0  0  0  0  0  0
    2.0529   -1.4676    0.7324 C   0  0  2  0  0  0  0  0  0  0  0  0
    2.2653   -2.7233    1.2670 O   0  0  0  0  0  0  0  0  0  0  0  0
    0.6843   -1.4182    0.0461 C   0  0  1  0  0  0  0  0  0  0  0  0
   -0.1808   -2.1424    0.8140 O   0  0  0  0  0  0  0  0  0  0  0  0
   -0.2774   -1.6631    2.0387 O   0  0  0  0  0  0  0  0  0  0  0  0
  2  1  1  1
  2  3  1  0
  3  4  1  0
  4  5  1  6
  4  6  1  0
  6  7  1  6
  6  8  1  0
  8  9  1  1
  8 10  1  0
 10 11  1  1
 11 12  1  0
 12 13  1  0
 13 14  1  0
 14 15  2  0
 13 16  1  0
 16 17  1  0
 17 18  1  1
 17 19  1  0
 19 20  1  6
 19 21  1  0
 21 22  1  1
 22 23  1  0
 23  1  1  0
 10  2  1  0
 21 11  1  0
M  RAD  1  12   2
M  END
$$$$
