
     RDKit          3D

 26 26  0  0  0  0  0  0  0  0999 V2000
   -2.8112    0.5590   -2.3425 O   0  0  0  0  0  0  0  0  0  0  0  0
   -2.0484    1.6665   -1.9947 C   0  0  0  0  0  0  0  0  0  0  0  0
   -1.9189    1.8233   -0.5120 C   0  0  0  0  0  3  0  0  0  0  0  0
   -2.5898    0.8256    0.2539 N   0  0  0  0  0  0  0  0  0  0  0  0
   -4.0065    0.7607    0.0546 C   0  0  2  0  0  0  0  0  0  0  0  0
   -4.5951    2.0956    0.4970 C   0  0  0  0  0  0  0  0  0  0  0  0
   -5.9624    2.0844    0.3245 O   0  0  0  0  0  0  0  0  0  0  0  0
   -4.5863   -0.3429    0.8890 C   0  0  1  0  0  0  0  0  0  0  0  0
   -5.8937   -0.6211    0.4876 O   0  0  0  0  0  0  0  0  0  0  0  0
   -3.7799   -1.5985    0.7612 C   0  0  2  0  0  0  0  0  0  0  0  0
   -4.3029   -2.6321    1.5000 O   0  0  0  0  0  0  0  0  0  0  0  0
   -2.4486   -1.3080    1.1334 O   0  0  0  0  0  0  0  0  0  0  0  0
   -1.9456   -0.4518    0.1811 C   0  0  2  0  0  0  0  0  0  0  0  0
   -0.4649   -0.2779    0.2162 C   0  0  0  0  0  0  0  0  0  0  0  0
    0.1809   -1.5194    0.1458 O   0  0  0  0  0  0  0  0  0  0  0  0
    1.5649   -1.3635    0.1782 C   0  0  1  0  0  0  0  0  0  0  0  0
    2.1582   -2.7697    0.0962 C   0  0  0  0  0  2  0  0  0  0  0  0
    1.9574   -0.6530   -1.1011 C   0  0  0  0  0  0  0  0  0  0  0  0
    3.3240   -0.4357   -1.1917 O   0  0  0  0  0  0  0  0  0  0  0  0
    3.8081    0.3394   -0.1577 C   0  0  0  0  0  3  0  0  0  0  0  0
    4.4051   -0.4912    0.7766 O   0  0  0  0  0  0  0  0  0  0  0  0
    5.5311    0.1977    1.2611 C   0  0  1  0  0  0  0  0  0  0  0  0
    6.2111   -0.6226    2.2543 N   0  0  0  0  0  0  0  0  0  0  0  0
    6.4435    0.4782    0.1144 C   0  0  0  0  0  0  0  0  0  0  0  0
    6.3429    1.6266   -0.4947 C   0  0  0  0  0  0  0  0  0  0  0  0
    5.4269    2.6303   -0.1452 N   0  0  0  0  0  0  0  0  0  0  0  0
  1  2  1  0
  2  3  1  0
  3  4  1  0
  4  5  1  0
  5  6  1  1
  6  7  1  0
  5  8  1  0
  8  9  1  6
  8 10  1  0
 10 11  1  1
 10 12  1  0
 12 13  1  0
 13 14  1  1
 14 15  1  0
 15 16  1  0
 16 17  1  6
 16 18  1  0
 18 19  1  0
 19 20  1  0
 20 21  1  0
 21 22  1  0
 22 23  1  1
 22 24  1  0
 24 25  2  3
 25 26  1  0
 13  4  1  0
M  RAD  3   3   2  17   3  20   2
M  END
$$$$
