
     RDKit          3D

 27 26  0  0  0  0  0  0  0  0999 V2000
   -7.4077    1.5906    1.6325 C   0  0  0  0  0  0  0  0  0  0  0  0
   -8.1990    0.8149    0.6330 C   0  0  0  0  0  0  0  0  0  0  0  0
   -9.3493    0.0551    1.2374 C   0  0  0  0  0  0  0  0  0  0  0  0
   -7.3377   -0.0524   -0.2590 C   0  0  0  0  0  0  0  0  0  0  0  0
   -6.3885    0.8765   -0.9906 C   0  0  0  0  0  0  0  0  0  0  0  0
   -5.4640    0.1533   -1.9205 C   0  0  0  0  0  0  0  0  0  0  0  0
   -4.6118   -0.8364   -1.1938 C   0  0  1  0  0  0  0  0  0  0  0  0
   -3.6888   -1.5576   -2.1265 C   0  0  0  0  0  0  0  0  0  0  0  0
   -3.9017   -0.2373   -0.0028 C   0  0  0  0  0  3  0  0  0  0  0  0
   -2.9913    0.8912   -0.3772 C   0  0  0  0  0  0  0  0  0  0  0  0
   -1.9022    0.4933   -1.3368 C   0  0  0  0  0  0  0  0  0  0  0  0
   -1.0260   -0.5835   -0.7522 C   0  0  2  0  0  0  0  0  0  0  0  0
   -0.3862   -0.0941    0.5074 C   0  0  0  0  0  0  0  0  0  0  0  0
   -0.0439   -1.0196   -1.7980 C   0  0  0  0  0  3  0  0  0  0  0  0
    0.8729   -2.1053   -1.2760 C   0  0  0  0  0  0  0  0  0  0  0  0
    1.6264   -1.5688   -0.0994 C   0  0  0  0  0  0  0  0  0  0  0  0
    2.6193   -0.0898   -0.6704 Si  0  0  0  0  0  4  0  0  0  0  0  0
    3.2345    1.1614    0.5600 C   0  0  0  0  0  0  0  0  0  0  0  0
    4.7428    1.1204    0.6435 C   0  0  0  0  0  0  0  0  0  0  0  0
    5.1483   -0.2697    1.0810 C   0  0  0  0  0  0  0  0  0  0  0  0
    4.6399   -0.6300    2.3060 O   0  0  0  0  0  0  0  0  0  0  0  0
    6.6520   -0.4664    0.9986 C   0  0  0  0  0  0  0  0  0  0  0  0
    7.1232   -0.2674   -0.4168 C   0  0  2  0  0  0  0  0  0  0  0  0
    8.6245   -0.4705   -0.4632 C   0  0  0  0  0  0  0  0  0  0  0  0
    6.7920    1.1552   -0.8491 C   0  0  0  0  0  0  0  0  0  0  0  0
    7.4680    2.0127    0.0365 O   0  0  0  0  0  0  0  0  0  0  0  0
    3.1543   -0.0759   -2.0892 O   0  0  0  0  0  0  0  0  0  0  0  0
  1  2  1  0
  2  3  1  0
  2  4  1  0
  4  5  1  0
  5  6  1  0
  6  7  1  0
  7  8  1  6
  7  9  1  0
  9 10  1  0
 10 11  1  0
 11 12  1  0
 12 13  1  1
 12 14  1  0
 14 15  1  0
 15 16  1  0
 16 17  1  0
 17 18  1  0
 18 19  1  0
 19 20  1  0
 20 21  1  0
 20 22  1  0
 22 23  1  0
 23 24  1  1
 23 25  1  0
 25 26  1  0
 17 27  2  0
M  RAD  2   9   2  14   2
M  END
$$$$
