
     RDKit          3D

 24 25  0  0  0  0  0  0  0  0999 V2000
    2.2629   -1.5697   -0.8331 C   0  0  0  0  0  0  0  0  0  0  0  0
    2.3447   -1.2217    0.6665 C   0  0  1  0  0  0  0  0  0  0  0  0
    3.8247   -0.9877    0.9588 C   0  0  0  0  0  0  0  0  0  0  0  0
    4.3808    0.2066    0.2336 C   0  0  2  0  0  0  0  0  0  0  0  0
    5.5964    0.5197    0.8479 O   0  0  0  0  0  0  0  0  0  0  0  0
    3.4981    1.4233    0.3157 C   0  0  2  0  0  0  0  0  0  0  0  0
    3.5454    1.9756    1.5926 O   0  0  0  0  0  0  0  0  0  0  0  0
    2.0366    1.1065    0.0219 C   0  0  1  0  0  0  0  0  0  0  0  0
    1.8829    0.7898   -1.3079 O   0  0  0  0  0  0  0  0  0  0  0  0
    1.6438    0.0477    0.9717 C   0  0  1  0  0  0  0  0  0  0  0  0
    0.2475   -0.0526    1.2561 N   0  0  0  0  0  0  0  0  0  0  0  0
   -0.5136   -0.5377    0.1125 C   0  0  1  0  0  0  0  0  0  0  0  0
   -1.5938   -1.4919    0.5004 C   0  0  0  0  0  0  0  0  0  0  0  0
   -2.9688   -0.8460    0.5420 C   0  0  0  0  0  0  0  0  0  0  0  0
   -3.0857   -0.0223    1.6613 O   0  0  0  0  0  0  0  0  0  0  0  0
   -3.9658   -1.9900    0.7238 C   0  0  0  0  0  0  0  0  0  0  0  0
   -3.6786   -2.7267    1.8687 O   0  0  0  0  0  0  0  0  0  0  0  0
   -3.3021   -0.1400   -0.7362 C   0  0  1  0  0  0  0  0  0  0  0  0
   -4.1033    0.9414   -0.5271 O   0  0  0  0  0  0  0  0  0  0  0  0
   -2.1060    0.1765   -1.5650 C   0  0  2  0  0  0  0  0  0  0  0  0
   -1.6743   -0.9336   -2.3056 O   0  0  0  0  0  0  0  0  0  0  0  0
   -0.9474    0.6424   -0.7138 C   0  0  1  0  0  0  0  0  0  0  0  0
   -1.4400    1.6431    0.1558 O   0  0  0  0  0  0  0  0  0  0  0  0
   -1.8845    3.0475   -0.7228 S   0  0  0  0  0  0  0  0  0  0  0  0
  2  1  1  6
  2  3  1  0
  3  4  1  0
  4  5  1  1
  4  6  1  0
  6  7  1  1
  6  8  1  0
  8  9  1  6
  8 10  1  0
 10 11  1  6
 12 11  1  1
 12 13  1  0
 13 14  1  0
 14 15  1  0
 14 16  1  0
 16 17  1  0
 14 18  1  0
 18 19  1  1
 18 20  1  0
 20 21  1  1
 20 22  1  0
 22 23  1  1
 23 24  1  0
 10  2  1  0
 22 12  1  0
M  END
$$$$
