
     RDKit          3D

 25 26  0  0  0  0  0  0  0  0999 V2000
   -5.9656    0.8728    2.6228 C   0  0  0  0  0  0  0  0  0  0  0  0
   -5.7979    0.5473    1.2726 O   0  0  0  0  0  0  0  0  0  0  0  0
   -4.6289   -0.0392    0.8048 C   0  0  0  0  0  0  0  0  0  0  0  0
   -3.5932   -0.3113    1.7085 C   0  0  0  0  0  0  0  0  0  0  0  0
   -2.4736   -0.8873    1.1839 C   0  0  0  0  0  0  0  0  0  0  0  0
   -2.2832   -1.2158   -0.1321 C   0  0  0  0  0  0  0  0  0  0  0  0
   -3.3316   -0.9335   -1.0105 C   0  0  0  0  0  0  0  0  0  0  0  0
   -4.4749   -0.3540   -0.5214 C   0  0  0  0  0  0  0  0  0  0  0  0
   -5.5118   -0.0767   -1.4009 O   0  0  0  0  0  0  0  0  0  0  0  0
   -5.4113   -0.3795   -2.7832 C   0  0  0  0  0  0  0  0  0  0  0  0
   -1.0455   -1.8427   -0.6454 C   0  0  0  0  0  0  0  0  0  0  0  0
   -0.0771   -0.7924   -1.0635 C   0  0  0  0  0  0  0  0  0  0  0  0
    0.3719    0.1551   -0.0497 C   0  0  0  0  0  0  0  0  0  0  0  0
   -0.5013    0.9510    0.5914 O   0  0  0  0  0  0  0  0  0  0  0  0
    1.7667    0.3402    0.1639 N   0  0  0  0  0  0  0  0  0  0  0  0
    1.9035    1.4821    0.9998 N   0  0  0  0  0  0  0  0  0  0  0  0
    3.2392    1.9323    0.7026 C   0  0  0  0  0  0  0  0  0  0  0  0
    3.5460    1.5704   -0.5335 C   0  0  0  0  0  0  0  0  0  0  0  0
    2.3602    0.8590   -1.0527 C   0  0  1  0  0  0  0  0  0  0  0  0
    2.7844   -0.1774   -1.8604 O   0  0  0  0  0  0  0  0  0  0  0  0
    3.7227   -1.0183   -1.2909 C   0  0  0  0  0  0  0  0  0  0  0  0
    4.9622   -0.2330   -0.9459 C   0  0  0  0  0  0  0  0  0  0  0  0
    6.0210   -1.1141   -0.3180 C   0  0  0  0  0  0  0  0  0  0  0  0
    7.2013   -0.2708   -0.0086 C   0  0  0  0  0  0  0  0  0  0  0  0
    7.2168    0.9360   -0.2597 O   0  0  0  0  0  0  0  0  0  0  0  0
  1  2  1  0
  2  3  1  0
  3  4  2  0
  4  5  1  0
  5  6  2  0
  6  7  1  0
  7  8  2  0
  8  9  1  0
  9 10  1  0
  6 11  1  0
 11 12  1  0
 12 13  1  0
 13 14  1  0
 13 15  1  0
 15 16  1  0
 16 17  1  0
 17 18  2  0
 18 19  1  0
 19 20  1  6
 20 21  1  0
 21 22  1  0
 22 23  1  0
 23 24  1  0
 24 25  2  0
  8  3  1  0
 19 15  1  0
M  END
$$$$
