
     RDKit          3D

  6  5  0  0  0  0  0  0  0  0999 V2000
    2.1381   -0.2913    0.4883 N   0  0  0  0  0  0  0  0  0  0  0  0
    0.8941    0.0426   -0.0646 C   0  0  0  0  0  0  0  0  0  0  0  0
    0.7770    1.0251   -0.8024 O   0  0  0  0  0  0  0  0  0  0  0  0
   -0.2172   -0.7712    0.2460 N   0  0  0  0  0  0  0  0  0  0  0  0
   -1.4787   -0.4902   -0.2682 N   0  0  0  0  0  0  0  0  0  0  0  0
   -2.1132    0.4850    0.4008 O   0  0  0  0  0  0  0  0  0  0  0  0
  1  2  1  0
  2  3  2  0
  2  4  1  0
  4  5  1  0
  5  6  1  0
M  END
$$$$
