
     RDKit          3D

 18 18  0  0  0  0  0  0  0  0999 V2000
    6.0893    0.7414   -0.8373 C   0  0  0  0  0  0  0  0  0  0  0  0
    4.7251    0.3255   -0.7062 O   0  0  0  0  0  0  0  0  0  0  0  0
    3.7881    1.3241   -0.4493 C   0  0  0  0  0  0  0  0  0  0  0  0
    4.1458    2.5284   -0.3414 O   0  0  0  0  0  0  0  0  0  0  0  0
    2.3492    0.9744   -0.2995 C   0  0  0  0  0  3  0  0  0  0  0  0
    2.0503   -0.1470   -1.2803 C   0  0  0  0  0  0  0  0  0  0  0  0
    0.5717   -0.5398   -1.1588 C   0  0  0  0  0  0  0  0  0  0  0  0
    0.3602   -0.9924    0.2563 C   0  0  0  0  0  0  0  0  0  0  0  0
   -0.1634    0.0676    0.9560 O   0  0  0  0  0  0  0  0  0  0  0  0
   -0.8314    0.8927    0.0836 C   0  0  0  0  0  0  0  0  0  0  0  0
   -0.2232    0.7406   -1.2756 C   0  0  0  0  0  3  0  0  0  0  0  0
   -0.4097   -2.2662    0.3811 C   0  0  0  0  0  3  0  0  0  0  0  0
   -1.7479   -2.1285   -0.2138 C   0  0  0  0  0  0  0  0  0  0  0  0
   -2.6882   -1.3162    0.2412 C   0  0  0  0  0  0  0  0  0  0  0  0
   -3.9605   -1.3062   -0.4719 C   0  0  0  0  0  0  0  0  0  0  0  0
   -4.9593   -0.5651   -0.1372 N   0  0  0  0  0  0  0  0  0  0  0  0
   -4.9342    0.3289    0.9679 C   0  0  0  0  0  0  0  0  0  0  0  0
   -4.1617    1.3379    0.9960 O   0  0  0  0  0  0  0  0  0  0  0  0
  1  2  1  0
  2  3  1  0
  3  4  2  0
  3  5  1  0
  5  6  1  0
  6  7  1  0
  7  8  1  0
  8  9  1  0
  9 10  1  0
 10 11  1  0
  8 12  1  0
 12 13  1  0
 13 14  2  3
 14 15  1  0
 15 16  2  3
 16 17  1  0
 17 18  2  0
 11  7  1  0
M  RAD  3   5   2  11   2  12   2
M  END
$$$$
