
     RDKit          3D

 24 25  0  0  0  0  0  0  0  0999 V2000
    6.3402    2.2952    0.6476 C   0  0  0  0  0  0  0  0  0  0  0  0
    5.5146    1.2187   -0.1122 C   0  0  0  0  0  0  0  0  0  0  0  0
    5.6395    1.5964   -1.6074 C   0  0  0  0  0  0  0  0  0  0  0  0
    6.2961   -0.0567    0.0591 C   0  0  0  0  0  0  0  0  0  0  0  0
    5.6547   -1.2265   -0.5651 C   0  0  0  0  0  0  0  0  0  0  0  0
    4.3458   -1.5702    0.0072 C   0  0  0  0  0  0  0  0  0  0  0  0
    3.2634   -0.5585   -0.1130 C   0  0  1  0  0  0  0  0  0  0  0  0
    2.9541   -0.2810   -1.5644 C   0  0  0  0  0  0  0  0  0  0  0  0
    2.0421   -0.8971    0.6846 C   0  0  0  0  0  3  0  0  0  0  0  0
    1.0192    0.2002    0.4820 C   0  0  0  0  0  0  0  0  0  0  0  0
   -0.2248   -0.0940    1.2623 C   0  0  0  0  0  0  0  0  0  0  0  0
   -0.8872   -1.3909    0.8674 C   0  0  1  0  0  0  0  0  0  0  0  0
   -2.1267   -1.5287    1.7551 C   0  0  0  0  0  0  0  0  0  0  0  0
   -1.3282   -1.4154   -0.5681 C   0  0  0  0  0  0  0  0  0  0  0  0
   -2.7646   -0.9979   -0.6914 C   0  0  0  0  0  0  0  0  0  0  0  0
   -3.6888   -2.0994   -1.0902 C   0  0  0  0  0  0  0  0  0  0  0  0
   -2.9444    0.2702   -1.4511 C   0  0  0  0  0  0  0  0  0  0  0  0
   -3.8440    1.2638   -0.7854 C   0  0  0  0  0  0  0  0  0  0  0  0
   -5.1620    0.7303   -0.2968 C   0  0  0  0  0  0  0  0  0  0  0  0
   -6.2917    1.3687   -0.8268 O   0  0  0  0  0  0  0  0  0  0  0  0
   -4.8529    1.3676    1.0627 C   0  0  0  0  0  0  0  0  0  0  0  0
   -3.4330    1.6410    0.5967 C   0  0  0  0  0  0  0  0  0  0  0  0
   -2.4731    0.6943    1.2406 C   0  0  0  0  0  0  0  0  0  0  0  0
   -3.0482   -0.5301    1.5183 O   0  0  0  0  0  0  0  0  0  0  0  0
  1  2  1  0
  2  3  1  0
  2  4  1  0
  4  5  1  0
  5  6  1  0
  6  7  1  0
  7  8  1  6
  7  9  1  0
  9 10  1  0
 10 11  1  0
 12 11  1  1
 12 13  1  0
 12 14  1  0
 14 15  1  0
 15 16  1  0
 15 17  1  0
 17 18  1  0
 18 19  1  0
 19 20  1  0
 19 21  1  0
 21 22  1  0
 22 23  1  0
 23 24  1  0
 24 13  1  0
 22 18  1  0
M  RAD  1   9   2
M  END
$$$$
