
     RDKit          3D

 55 59  0  0  0  0  0  0  0  0999 V2000
    9.4389   -2.3538   -1.5935 C   0  0  0  0  0  0  0  0  0  0  0  0
   10.3421   -1.1598   -1.5458 C   0  0  0  0  0  3  0  0  0  0  0  0
   10.9767   -1.0424   -0.1761 C   0  0  0  0  0  0  0  0  0  0  0  0
   10.4580    0.1656    0.5861 C   0  0  0  0  0  3  0  0  0  0  0  0
   10.7473    1.3581   -0.2373 C   0  0  0  0  0  0  0  0  0  0  0  0
   11.0619    2.3934    0.2959 O   0  0  0  0  0  0  0  0  0  0  0  0
   10.6450    1.2593   -1.7082 C   0  0  0  0  0  0  0  0  0  0  0  0
    9.6942    0.1040   -2.0085 C   0  0  2  0  0  0  0  0  0  0  0  0
    8.4493    0.3631   -1.1512 C   0  0  0  0  0  0  0  0  0  0  0  0
    7.5015   -0.7657   -1.3971 C   0  0  0  0  0  0  0  0  0  0  0  0
    8.0785   -2.0964   -1.0300 C   0  0  2  0  0  0  0  0  0  0  0  0
    8.1003   -2.2385    0.4636 C   0  0  0  0  0  0  0  0  0  0  0  0
    6.7221   -1.9775    1.0319 C   0  0  0  0  0  0  0  0  0  0  0  0
    5.7215   -2.9642    0.4656 C   0  0  0  0  0  3  0  0  0  0  0  0
    6.0662   -4.3906    0.7776 C   0  0  0  0  0  0  0  0  0  0  0  0
    4.3215   -2.6699    0.8935 C   0  0  0  0  0  3  0  0  0  0  0  0
    3.2845   -2.7921   -0.2072 C   0  0  0  0  0  0  0  0  0  0  0  0
    3.9902   -1.2033    1.0642 C   0  0  0  0  0  0  0  0  0  0  0  0
    3.3486   -1.2642   -0.3279 C   0  0  2  0  0  0  0  0  0  0  0  0
    1.9516   -0.7208   -0.3904 C   0  0  0  0  0  0  0  0  0  0  0  0
    1.9457    0.6713   -0.5013 O   0  0  0  0  0  0  0  0  0  0  0  0
    0.6276    1.1188   -0.5551 C   0  0  0  0  0  0  0  0  0  0  0  0
   -0.1047    0.7321    0.6605 C   0  0  0  0  0  0  0  0  0  0  0  0
   -1.1806   -0.0289    0.6812 C   0  0  0  0  0  0  0  0  0  0  0  0
   -1.9077   -0.4093    1.9206 C   0  0  0  0  0  3  0  0  0  0  0  0
   -3.1843   -1.0564    1.4774 C   0  0  0  0  0  0  0  0  0  0  0  0
   -3.0894   -1.2814   -0.0099 C   0  0  0  0  0  0  0  0  0  0  0  0
   -1.8428   -0.6270   -0.4952 C   0  0  1  0  0  0  0  0  0  0  0  0
   -2.0663    0.2796   -1.5220 O   0  0  0  0  0  0  0  0  0  0  0  0
   -2.3831    1.5056   -0.9874 C   0  0  0  0  0  0  0  0  0  0  0  0
   -3.6898    2.0569   -1.5163 C   0  0  2  0  0  0  0  0  0  0  0  0
   -3.3581    2.8364   -2.7901 C   0  0  0  0  0  3  0  0  0  0  0  0
   -2.4753    3.8622   -2.4727 O   0  0  0  0  0  0  0  0  0  0  0  0
   -3.1466    4.8957   -1.7869 C   0  0  0  0  0  0  0  0  0  0  0  0
   -2.2091    6.0052   -1.4395 C   0  0  0  0  0  1  0  0  0  0  0  0
   -4.1476    2.9963   -0.5937 O   0  0  0  0  0  0  0  0  0  0  0  0
   -5.4855    2.8043   -0.2674 C   0  0  1  0  0  0  0  0  0  0  0  0
   -6.1991    2.2200   -1.3145 O   0  0  0  0  0  0  0  0  0  0  0  0
   -5.5054    1.8948    0.9665 C   0  0  0  0  0  3  0  0  0  0  0  0
   -4.6261    0.7259    0.6599 C   0  0  0  0  0  0  0  0  0  0  0  0
   -4.4096   -0.2031    1.8106 C   0  0  0  0  0  0  0  0  0  0  0  0
   -5.4741   -1.1184    1.9361 O   0  0  0  0  0  0  0  0  0  0  0  0
   -5.6645   -1.7835    0.8355 O   0  0  0  0  0  0  0  0  0  0  0  0
   -5.9973   -0.9930   -0.2506 C   0  0  0  0  0  3  0  0  0  0  0  0
   -7.4919   -0.9582   -0.3630 C   0  0  0  0  0  0  0  0  0  0  0  0
   -8.0260   -2.0743   -1.2391 C   0  0  2  0  0  0  0  0  0  0  0  0
   -7.4152   -1.8963   -2.6182 C   0  0  0  0  0  0  0  0  0  0  0  0
   -9.5334   -1.8966   -1.3218 C   0  0  1  0  0  0  0  0  0  0  0  0
  -10.0776   -2.8882   -2.1100 O   0  0  0  0  0  0  0  0  0  0  0  0
  -10.1071   -2.0153    0.0338 C   0  0  0  0  0  0  0  0  0  0  0  0
  -10.1564   -0.9416    0.8282 C   0  0  0  0  0  3  0  0  0  0  0  0
   -4.2712    0.4885    3.1304 C   0  0  0  0  0  0  0  0  0  0  0  0
   -3.0996    1.4143    3.2133 C   0  0  0  0  0  0  0  0  0  0  0  0
   -3.1369    2.4308    2.2834 O   0  0  0  0  0  0  0  0  0  0  0  0
   -2.0107    3.2287    2.4447 C   0  0  0  0  0  2  0  0  0  0  0  0
  1  2  1  0
  2  3  1  0
  3  4  1  0
  4  5  1  0
  5  6  2  0
  5  7  1  0
  8  7  1  1
  8  9  1  0
  9 10  1  0
 10 11  1  0
 11 12  1  1
 12 13  1  0
 13 14  1  0
 14 15  1  0
 16 14  1  6
 16 17  1  0
 16 18  1  0
 18 19  1  0
 19 20  1  1
 20 21  1  0
 21 22  1  0
 22 23  1  0
 23 24  2  3
 24 25  1  0
 25 26  1  0
 26 27  1  0
 27 28  1  0
 28 29  1  6
 29 30  1  0
 30 31  1  0
 31 32  1  6
 32 33  1  0
 33 34  1  0
 34 35  1  0
 31 36  1  0
 36 37  1  0
 37 38  1  6
 37 39  1  0
 39 40  1  0
 40 41  1  0
 41 42  1  0
 42 43  1  0
 43 44  1  0
 44 45  1  0
 45 46  1  0
 46 47  1  6
 46 48  1  0
 48 49  1  6
 48 50  1  0
 50 51  2  0
 41 52  1  0
 52 53  1  0
 53 54  1  0
 54 55  1  0
 11  1  1  0
  8  2  1  0
 19 17  1  0
 28 24  1  0
 41 26  1  0
M  RAD  8   2   2   4   2  14   2  16   2  25   2  32   2  35   2  39   2
M  RAD  3  44   2  51   2  55   3
M  END
$$$$
