
     RDKit          3D

 17 16  0  0  0  0  0  0  0  0999 V2000
    4.6632    0.5947    0.2550 O   0  0  0  0  0  0  0  0  0  0  0  0
    4.8517   -0.8025    0.1681 C   0  0  0  0  0  0  0  0  0  0  0  0
    3.7735   -1.4180   -0.6630 C   0  0  0  0  0  3  0  0  0  0  0  0
    2.8094   -0.4340   -1.0629 N   0  0  0  0  0  0  0  0  0  0  0  0
    1.6516   -0.3961   -0.2462 C   0  0  2  0  0  0  0  0  0  0  0  0
    0.8436   -1.6310   -0.2651 C   0  0  0  0  0  0  0  0  0  0  0  0
    1.3985   -2.7799    0.2151 O   0  0  0  0  0  0  0  0  0  0  0  0
    0.7732    0.7733   -0.5631 C   0  0  1  0  0  0  0  0  0  0  0  0
    0.3437    0.6715   -1.8438 O   0  0  0  0  0  0  0  0  0  0  0  0
   -0.3169    0.7440    0.4895 C   0  0  2  0  0  0  0  0  0  0  0  0
   -0.9616   -0.5326    0.3223 O   0  0  0  0  0  0  0  0  0  0  0  0
   -1.4211    1.7640    0.1504 C   0  0  0  0  0  3  0  0  0  0  0  0
   -2.2986    1.1232   -0.8591 C   0  0  0  0  0  3  0  0  0  0  0  0
   -3.1448    0.1281   -0.4788 O   0  0  0  0  0  0  0  0  0  0  0  0
   -3.9554    0.4289    0.5946 C   0  0  0  0  0  0  0  0  0  0  0  0
   -5.2967    0.2093    0.1232 N   0  0  0  0  0  1  0  0  0  0  0  0
   -3.7135    1.5570    1.2265 O   0  0  0  0  0  0  0  0  0  0  0  0
  1  2  1  0
  2  3  1  0
  3  4  1  0
  4  5  1  0
  5  6  1  6
  6  7  1  0
  5  8  1  0
  8  9  1  6
  8 10  1  0
 10 11  1  6
 10 12  1  0
 12 13  1  0
 13 14  1  0
 14 15  1  0
 15 16  1  0
 15 17  1  0
M  CHG  1  16   1
M  RAD  4   3   2  12   2  13   2  16   2
M  END
$$$$
