
     RDKit          3D

 11 10  0  0  0  0  0  0  0  0999 V2000
    3.2061    0.8809   -0.9715 O   0  0  0  0  0  0  0  0  0  0  0  0
    2.8931   -0.4545   -0.6914 C   0  0  0  0  0  0  0  0  0  0  0  0
    2.2962   -0.5684    0.6753 C   0  0  0  0  0  3  0  0  0  0  0  0
    0.8497   -0.4333    0.6663 N   0  0  0  0  0  0  0  0  0  0  0  0
    0.3395   -1.1529   -0.4846 C   0  0  0  0  0  0  0  0  0  0  0  0
   -1.1466   -1.0232   -0.5075 C   0  0  2  0  0  0  0  0  0  0  0  0
   -1.7433   -1.6751   -1.5694 O   0  0  0  0  0  0  0  0  0  0  0  0
   -1.5796    0.4447   -0.4566 C   0  0  1  0  0  0  0  0  0  0  0  0
   -2.9608    0.5329   -0.3068 O   0  0  0  0  0  0  0  0  0  0  0  0
   -0.9144    1.0545    0.7609 C   0  0  0  0  0  3  0  0  0  0  0  0
   -1.2399    2.3946    0.9059 O   0  0  0  0  0  0  0  0  0  0  0  0
  1  2  1  0
  2  3  1  0
  3  4  1  0
  4  5  1  0
  5  6  1  0
  6  7  1  6
  6  8  1  0
  8  9  1  1
  8 10  1  0
 10 11  1  0
M  RAD  2   3   2  10   2
M  END
$$$$
