
     RDKit          3D

 15 15  0  0  0  0  0  0  0  0999 V2000
   -0.6533    0.7142    0.7028 N   0  0  0  0  0  0  0  0  0  0  0  0
   -0.2481    2.1721   -0.1700 S   0  0  0  0  0  0  0  0  0  0  0  0
   -0.9256    3.5179    0.6453 F   0  0  0  0  0  0  0  0  0  0  0  0
   -1.9568    0.5309    0.8920 O   0  0  0  0  0  0  0  0  0  0  0  0
   -2.6598    0.1531   -0.2322 C   0  0  2  0  0  0  0  0  0  0  0  0
   -4.0597    0.7200   -0.1205 C   0  0  0  0  0  2  0  0  0  0  0  0
   -2.8105   -1.3720   -0.2007 C   0  0  0  0  0  0  0  0  0  0  0  0
   -1.5397   -2.0186   -0.4280 N   0  0  0  0  0  0  0  0  0  0  0  0
   -0.3631   -1.6342   -0.2379 N   0  0  0  0  0  0  0  0  0  0  0  0
    0.0414   -0.3979    0.2772 N   0  0  0  0  0  0  0  0  0  0  0  0
    1.4337   -0.2764    0.3760 N   0  0  0  0  0  0  0  0  0  0  0  0
    2.0871   -1.4679    0.0782 N   0  0  0  0  0  0  0  0  0  0  0  0
    3.3038   -1.1893   -0.4131 O   0  0  0  0  0  0  0  0  0  0  0  0
    4.0745   -0.5649    0.5089 N   0  0  0  0  0  0  0  0  0  0  0  0
    4.2761    1.1129    0.1418 Cl  0  0  0  0  0  0  0  0  0  0  0  0
  1  2  1  0
  2  3  1  0
  1  4  1  0
  4  5  1  0
  5  6  1  1
  5  7  1  0
  7  8  1  0
  8  9  2  0
  9 10  1  0
 10 11  1  0
 11 12  1  0
 12 13  1  0
 13 14  1  0
 14 15  1  0
 10  1  1  0
M  RAD  1   6   3
M  END
$$$$
