
     RDKit          3D

  4  3  0  0  0  0  0  0  0  0999 V2000
    0.9253    0.9292    1.2274 C   0  0  0  0  0  0  0  0  0  0  0  0
    0.3142    0.4621    0.2980 C   0  0  0  0  0  0  0  0  0  0  0  0
   -0.3947   -0.1095   -0.7899 N   0  0  0  0  0  3  0  0  0  0  0  0
   -0.8448   -1.2817   -0.7614 N   0  0  0  0  0  2  0  0  0  0  0  0
  1  2  3  0
  2  3  1  0
  3  4  2  0
M  CHG  2   3   1   4  -1
M  RAD  1   3   2
M  END
$$$$
