
     RDKit          3D

 54 62  0  0  0  0  0  0  0  0999 V2000
   -1.5713    8.2815   -0.9196 C   0  0  0  0  0  0  0  0  0  0  0  0
   -2.0797    7.0589   -0.9791 C   0  0  0  0  0  0  0  0  0  0  0  0
   -2.7579    6.5429    0.1949 C   0  0  0  0  0  0  0  0  0  0  0  0
   -3.2707    5.3351    0.1734 C   0  0  0  0  0  0  0  0  0  0  0  0
   -3.1057    4.3693   -1.3210 P   0  0  0  0  0  0  0  0  0  0  0  0
   -2.3747    5.1126   -2.4282 O   0  0  0  0  0  0  0  0  0  0  0  0
   -4.4076    3.3607   -1.7624 C   0  0  0  0  0  0  0  0  0  0  0  0
   -3.8913    2.2408   -1.5412 C   0  0  0  0  0  0  0  0  0  0  0  0
   -2.6296    2.6813   -1.0959 C   0  0  0  0  0  0  0  0  0  0  0  0
   -2.3341    2.4491    0.3542 N   0  0  0  0  0  0  0  0  0  0  0  0
   -3.3625    1.5837    0.9064 C   0  0  0  0  0  0  0  0  0  0  0  0
   -2.8656    0.7147    2.0646 C   0  0  0  0  0  0  0  0  0  0  0  0
   -3.4805   -0.6316    2.1219 C   0  0  0  0  0  0  0  0  0  0  0  0
   -2.6036   -1.7692    2.5119 C   0  0  0  0  0  0  0  0  0  0  0  0
   -1.2191   -1.5800    2.5038 N   0  0  0  0  0  0  0  0  0  0  0  0
   -0.6855   -0.3223    2.7461 N   0  0  0  0  0  0  0  0  0  0  0  0
   -1.4017    0.7760    2.1294 C   0  0  0  0  0  0  0  0  0  0  0  0
   -0.9923    0.7122    0.7262 N   0  0  0  0  0  0  0  0  0  0  0  0
   -1.3549   -0.4555    0.2033 N   0  0  0  0  0  0  0  0  0  0  0  0
   -2.5016   -0.6667   -0.5748 C   0  0  0  0  0  0  0  0  0  0  0  0
   -2.4219   -1.9457   -1.3570 C   0  0  0  0  0  0  0  0  0  0  0  0
   -1.0130   -2.4058   -1.2539 C   0  0  0  0  0  0  0  0  0  0  0  0
    0.0272   -1.4244   -1.2647 C   0  0  0  0  0  0  0  0  0  0  0  0
    0.3112   -0.3844   -2.0402 C   0  0  0  0  0  0  0  0  0  0  0  0
    1.6227    0.2404   -1.7357 C   0  0  0  0  0  0  0  0  0  0  0  0
    1.6945    1.6371   -1.4575 C   0  0  0  0  0  0  0  0  0  0  0  0
    1.0197    2.7742   -1.2184 C   0  0  0  0  0  0  0  0  0  0  0  0
   -0.4249    3.0331   -1.4904 C   0  0  0  0  0  0  0  0  0  0  0  0
   -1.4230    2.2625   -1.9004 C   0  0  0  0  0  0  0  0  0  0  0  0
   -1.3807    1.2365   -2.8670 N   0  0  0  0  0  0  0  0  0  0  0  0
   -0.7137   -0.0430   -3.0674 C   0  0  0  0  0  3  0  0  0  0  0  0
    2.4609   -0.4929   -0.8356 N   0  0  0  0  0  0  0  0  0  0  0  0
    3.3937   -1.3024   -0.1599 C   0  0  0  0  0  0  0  0  0  0  0  0
    4.3926   -2.1453   -0.0457 C   0  0  0  0  0  0  0  0  0  0  0  0
    5.0782   -2.6723   -1.2340 C   0  0  0  0  0  0  0  0  0  0  0  0
    6.4452   -2.8548   -1.2425 C   0  0  0  0  0  0  0  0  0  0  0  0
    7.1537   -3.3448   -2.3144 C   0  0  0  0  0  0  0  0  0  0  0  0
    6.3976   -3.6596   -3.4321 C   0  0  0  0  0  0  0  0  0  0  0  0
    5.0336   -3.4923   -3.4634 C   0  0  0  0  0  0  0  0  0  0  0  0
    4.3665   -2.9985   -2.3662 C   0  0  0  0  0  0  0  0  0  0  0  0
    2.8772   -2.8302   -2.4232 C   0  0  0  0  0  0  0  0  0  0  0  0
    2.4204   -0.4831    0.5716 C   0  0  0  0  0  0  0  0  0  0  0  0
    1.6030    0.2042    1.3099 C   0  0  0  0  0  0  0  0  0  0  0  0
    1.5874    0.1900    2.7492 C   0  0  0  0  0  0  0  0  0  0  0  0
    0.5009   -0.0601    3.4880 C   0  0  0  0  0  0  0  0  0  0  0  0
    0.6905   -0.0203    4.8953 N   0  0  0  0  0  0  0  0  0  0  0  0
    1.5144   -0.9503    5.6220 C   0  0  0  0  0  0  0  0  0  0  0  0
    1.5533   -0.6968    7.0883 C   0  0  0  0  0  0  0  0  0  0  0  0
   -2.8853   -2.8961    1.4709 C   0  0  0  0  0  0  0  0  0  0  0  0
   -1.6066   -3.4887    1.0060 C   0  0  0  0  0  0  0  0  0  0  0  0
   -0.9487   -4.4683    1.7835 C   0  0  0  0  0  0  0  0  0  0  0  0
    0.1705   -4.8593    1.1915 N   0  0  0  0  0  0  0  0  0  0  0  0
    0.2521   -4.1573    0.0519 C   0  0  0  0  0  0  0  0  0  0  0  0
   -0.8590   -3.2950   -0.0723 C   0  0  0  0  0  0  0  0  0  0  0  0
  1  2  2  0
  2  3  1  0
  3  4  2  3
  4  5  1  0
  5  6  2  0
  5  7  1  0
  7  8  2  0
  8  9  1  0
  9 10  1  0
 10 11  1  0
 11 12  1  0
 12 13  1  0
 13 14  1  0
 14 15  1  0
 15 16  1  0
 16 17  1  0
 17 18  1  0
 18 19  1  0
 19 20  1  0
 20 21  1  0
 21 22  1  0
 22 23  1  0
 23 24  2  3
 24 25  1  0
 25 26  1  0
 26 27  2  3
 27 28  1  0
 28 29  2  3
 29 30  1  0
 30 31  1  0
 25 32  1  0
 32 33  1  0
 33 34  2  3
 34 35  1  0
 35 36  2  0
 36 37  1  0
 37 38  2  0
 38 39  1  0
 39 40  2  0
 40 41  1  0
 32 42  1  0
 42 43  2  3
 43 44  1  0
 44 45  2  3
 45 46  1  0
 46 47  1  0
 47 48  1  0
 14 49  1  0
 49 50  1  0
 50 51  2  0
 51 52  1  0
 52 53  1  0
 53 54  2  0
  9  5  1  0
 29  9  1  0
 17 12  1  0
 45 16  1  0
 54 22  1  0
 31 24  1  0
 42 33  1  0
 40 35  1  0
 54 50  1  0
M  RAD  1  31   2
M  END
$$$$
