
     RDKit          3D

 12 11  0  0  0  0  0  0  0  0999 V2000
   -4.5376    1.7254   -0.6217 C   0  0  0  0  0  0  0  0  0  0  0  0
   -3.2670    0.9546   -0.4831 C   0  0  0  0  0  0  0  0  0  0  0  0
   -3.5225   -0.5321   -0.2062 C   0  0  0  0  0  0  0  0  0  0  0  0
   -2.1346   -1.1634   -0.0938 C   0  0  0  0  0  0  0  0  0  0  0  0
   -1.3794   -0.9607   -1.3935 C   0  0  0  0  0  0  0  0  0  0  0  0
   -0.0214   -1.6092   -1.2070 C   0  0  0  0  0  0  0  0  0  0  0  0
    0.7278   -0.9647   -0.0538 C   0  0  0  0  0  0  0  0  0  0  0  0
    0.9343    0.5175   -0.3261 C   0  0  0  0  0  0  0  0  0  0  0  0
    1.6911    1.0822    0.8778 C   0  0  0  0  0  0  0  0  0  0  0  0
    2.9980    0.3213    0.9475 C   0  0  0  0  0  0  0  0  0  0  0  0
    3.7129    0.5745   -0.3453 C   0  0  0  0  0  0  0  0  0  0  0  0
    4.7985    0.0547   -0.5105 O   0  0  0  0  0  0  0  0  0  0  0  0
  1  2  1  0
  2  3  1  0
  3  4  1  0
  4  5  1  0
  5  6  1  0
  6  7  1  0
  7  8  1  0
  8  9  1  0
  9 10  1  0
 10 11  1  0
 11 12  2  0
M  END
$$$$
