
     RDKit          3D

 23 22  0  0  0  0  0  0  0  0999 V2000
   -7.7873    1.8715    2.1976 N   0  0  0  0  0  0  0  0  0  0  0  0
   -7.1674    1.6901    1.0751 C   0  0  0  0  0  0  0  0  0  0  0  0
   -7.8469    1.8240   -0.2380 C   0  0  0  0  0  0  0  0  0  0  0  0
   -5.7062    1.3360    1.0784 C   0  0  0  0  0  0  0  0  0  0  0  0
   -5.5217    0.0083    0.3936 C   0  0  0  0  0  0  0  0  0  0  0  0
   -4.1055   -0.4466    0.3339 C   0  0  0  0  0  0  0  0  0  0  0  0
   -3.5936   -0.5775    1.7488 C   0  0  0  0  0  0  0  0  0  0  0  0
   -2.1707   -1.0374    1.8147 C   0  0  0  0  0  0  0  0  0  0  0  0
   -1.2883   -0.1731    1.1717 O   0  0  0  0  0  0  0  0  0  0  0  0
   -1.5813   -0.0099   -0.1613 C   0  0  0  0  0  0  0  0  0  0  0  0
   -1.5300   -1.5353   -1.0918 S   0  0  0  0  0  0  0  0  0  0  0  0
    0.0906   -2.1562   -1.1879 N   0  0  0  0  0  0  0  0  0  0  0  0
    1.2534   -1.4108   -0.8594 C   0  0  0  0  0  0  0  0  0  0  0  0
    1.1309   -0.2320   -0.4669 O   0  0  0  0  0  0  0  0  0  0  0  0
    2.5535   -2.0429   -0.9900 C   0  0  0  0  0  0  0  0  0  0  0  0
    3.7151   -1.5313   -0.7440 C   0  0  0  0  0  0  0  0  0  0  0  0
    3.9934   -0.1901   -0.2786 C   0  0  0  0  0  0  0  0  0  0  0  0
    4.8796    0.5974   -1.2446 C   0  0  0  0  0  0  0  0  0  0  0  0
    4.1936    0.7252   -2.5991 C   0  0  0  0  0  0  0  0  0  0  0  0
    6.2212   -0.1072   -1.4074 C   0  0  0  0  0  0  0  0  0  0  0  0
    6.9750   -0.2500   -0.1376 C   0  0  0  0  0  0  0  0  0  0  0  0
    7.3276    1.0177    0.5577 C   0  0  0  0  0  0  0  0  0  0  0  0
    5.9651    2.0111    1.0351 Cl  0  0  0  0  0  0  0  0  0  0  0  0
  1  2  2  0
  2  3  1  0
  2  4  1  0
  4  5  1  0
  5  6  1  0
  6  7  1  0
  7  8  1  0
  8  9  1  0
  9 10  1  0
 10 11  1  0
 11 12  1  0
 12 13  1  0
 13 14  2  0
 13 15  1  0
 15 16  2  3
 16 17  1  0
 17 18  1  0
 18 19  1  0
 18 20  1  0
 20 21  1  0
 21 22  1  0
 22 23  1  0
M  END
$$$$
