
     RDKit          3D

 87 88  0  0  0  0  0  0  0  0999 V2000
   -4.5809    5.6768   -0.1979 O   0  0  0  0  0  0  0  0  0  0  0  0
   -5.5503    5.7289   -1.0937 O   0  0  0  0  0  0  0  0  0  0  0  0
   -6.6964    6.1753   -0.4432 C   0  0  0  0  0  3  0  0  0  0  0  0
   -7.7300    5.2734   -0.6409 O   0  0  0  0  0  0  0  0  0  0  0  0
   -8.9003    5.7662   -0.1104 C   0  0  2  0  0  0  0  0  0  0  0  0
   -8.7242    6.6849    1.0493 C   0  0  0  0  0  0  0  0  0  0  0  0
   -8.1113    7.8648    0.6404 O   0  0  0  0  0  0  0  0  0  0  0  0
   -9.8092    4.6046    0.2271 C   0  0  1  0  0  0  0  0  0  0  0  0
  -11.0969    5.0244    0.5000 O   0  0  0  0  0  0  0  0  0  0  0  0
  -11.7320    5.3649   -0.6991 C   0  0  0  0  0  2  0  0  0  0  0  0
   -9.6980    3.5079   -0.7721 C   0  0  0  0  0  3  0  0  0  0  0  0
   -9.2888    2.2017   -0.1206 C   0  0  0  0  0  0  0  0  0  0  0  0
  -10.3946    1.3505   -0.0633 O   0  0  0  0  0  0  0  0  0  0  0  0
   -9.9880    0.1377    0.4740 C   0  0  0  0  0  3  0  0  0  0  0  0
  -10.1394   -0.9103   -0.4225 O   0  0  0  0  0  0  0  0  0  0  0  0
  -10.8186   -1.9288    0.2241 C   0  0  0  0  0  3  0  0  0  0  0  0
  -10.2942   -3.2895   -0.1595 C   0  0  0  0  0  0  0  0  0  0  0  0
   -8.9364   -3.4200    0.1676 O   0  0  0  0  0  0  0  0  0  0  0  0
   -8.4873   -4.5020   -0.4323 O   0  0  0  0  0  0  0  0  0  0  0  0
   -8.7124   -5.6500    0.3378 C   0  0  0  0  0  3  0  0  0  0  0  0
   -7.4626   -6.5071    0.2152 C   0  0  2  0  0  0  0  0  0  0  0  0
   -7.5844   -7.6135    1.0453 O   0  0  0  0  0  0  0  0  0  0  0  0
   -6.2846   -5.6732    0.6429 C   0  0  0  0  0  3  0  0  0  0  0  0
   -5.0430   -6.1535   -0.0766 C   0  0  0  0  0  3  0  0  0  0  0  0
   -4.6470   -7.4636    0.5113 C   0  0  2  0  0  0  0  0  0  0  0  0
   -3.6979   -7.3400    1.6645 C   0  0  0  0  0  3  0  0  0  0  0  0
   -3.1490   -6.0623    1.6806 O   0  0  0  0  0  0  0  0  0  0  0  0
   -2.2584   -5.8573    0.6282 C   0  0  0  0  0  3  0  0  0  0  0  0
   -1.0667   -6.5579    0.8184 O   0  0  0  0  0  0  0  0  0  0  0  0
   -0.6828   -7.0550   -0.4191 C   0  0  2  0  0  0  0  0  0  0  0  0
   -1.5747   -8.2092   -0.8540 C   0  0  0  0  0  3  0  0  0  0  0  0
   -1.8036   -9.1170    0.3345 C   0  0  0  0  0  3  0  0  0  0  0  0
   -2.7767  -10.2135   -0.0131 C   0  0  0  0  0  3  0  0  0  0  0  0
   -4.0628   -9.6892   -0.0010 O   0  0  0  0  0  0  0  0  0  0  0  0
   -4.1266   -8.4313   -0.5254 C   0  0  1  0  0  0  0  0  0  0  0  0
   -4.9992   -8.3459   -1.6249 O   0  0  0  0  0  0  0  0  0  0  0  0
   -5.9709   -9.3346   -1.5194 C   0  0  0  0  0  2  0  0  0  0  0  0
    0.7763   -7.4130   -0.4878 C   0  0  0  0  0  3  0  0  0  0  0  0
    1.2437   -7.7730    0.9013 C   0  0  0  0  0  3  0  0  0  0  0  0
    2.5625   -7.3758    1.1120 O   0  0  0  0  0  0  0  0  0  0  0  0
    2.9537   -6.3578    0.2432 C   0  0  2  0  0  0  0  0  0  0  0  0
    3.4482   -6.8901   -0.9496 O   0  0  0  0  0  0  0  0  0  0  0  0
    4.0268   -5.5541    0.9458 C   0  0  0  0  0  3  0  0  0  0  0  0
    5.0667   -5.0617   -0.0245 C   0  0  0  0  0  3  0  0  0  0  0  0
    4.8742   -3.6988   -0.2348 O   0  0  0  0  0  0  0  0  0  0  0  0
    5.9672   -3.1097   -0.6537 O   0  0  0  0  0  0  0  0  0  0  0  0
    5.7332   -2.5191   -1.8834 C   0  0  0  0  0  3  0  0  0  0  0  0
    5.1230   -1.2687   -1.7555 O   0  0  0  0  0  0  0  0  0  0  0  0
    5.6822   -0.5390   -0.7245 C   0  0  2  0  0  0  0  0  0  0  0  0
    5.0174   -0.7603    0.6044 C   0  0  0  0  0  3  0  0  0  0  0  0
    5.8373   -1.3482    1.5475 O   0  0  0  0  0  0  0  0  0  0  0  0
    7.1478   -0.9045    1.5035 C   0  0  0  0  0  3  0  0  0  0  0  0
    7.7068   -0.9437    0.2381 O   0  0  0  0  0  0  0  0  0  0  0  0
    9.0829   -1.0498    0.2495 C   0  0  0  0  0  3  0  0  0  0  0  0
    9.4854   -2.3905    0.1537 O   0  0  0  0  0  0  0  0  0  0  0  0
   11.0309   -2.4905    0.8989 S   0  0  0  0  0  0  0  0  0  0  0  0
   12.2699   -3.0400   -0.3072 C   0  0  0  0  0  3  0  0  0  0  0  0
   12.8892   -1.9541   -0.9110 O   0  0  0  0  0  0  0  0  0  0  0  0
   14.0295   -1.5557   -0.2118 C   0  0  0  0  0  3  0  0  0  0  0  0
   14.3161   -2.4358    0.8436 O   0  0  0  0  0  0  0  0  0  0  0  0
   15.3216   -3.1898    0.4230 O   0  0  0  0  0  0  0  0  0  0  0  0
   14.8873   -4.5069    0.4166 C   0  0  0  0  0  2  0  0  0  0  0  0
    5.7911    0.9315   -1.0149 C   0  0  0  0  0  3  0  0  0  0  0  0
    5.6409    1.6666    0.3094 C   0  0  0  0  0  3  0  0  0  0  0  0
    5.6891    3.0345    0.0517 O   0  0  0  0  0  0  0  0  0  0  0  0
    4.4647    3.4350   -0.4992 C   0  0  0  0  0  3  0  0  0  0  0  0
    3.8652    4.4244    0.2648 O   0  0  0  0  0  0  0  0  0  0  0  0
    3.0428    5.1807   -0.5758 C   0  0  2  0  0  0  0  0  0  0  0  0
    3.8715    6.2498   -1.2514 C   0  0  0  0  0  3  0  0  0  0  0  0
    4.7216    7.0068   -0.2620 C   0  0  1  0  0  0  0  0  0  0  0  0
    5.1287    6.2458    0.8033 O   0  0  0  0  0  0  0  0  0  0  0  0
    5.8578    7.6910   -0.9901 C   0  0  0  0  0  3  0  0  0  0  0  0
    5.4951    9.1368   -1.2131 C   0  0  0  0  0  3  0  0  0  0  0  0
    5.6634    9.9083    0.0848 C   0  0  0  0  0  3  0  0  0  0  0  0
    6.9998   10.0599    0.4150 O   0  0  0  0  0  0  0  0  0  0  0  0
    7.7551    9.0034   -0.0908 C   0  0  0  0  0  2  0  0  0  0  0  0
    1.9450    5.6873    0.0900 O   0  0  0  0  0  0  0  0  0  0  0  0
    2.3005    6.6955    0.9794 C   0  0  0  0  0  3  0  0  0  0  0  0
    2.0862    8.0616    0.3730 C   0  0  0  0  0  3  0  0  0  0  0  0
    1.4015    7.9576   -0.9709 C   0  0  0  0  0  3  0  0  0  0  0  0
   -0.1373    7.0086   -0.8010 S   0  0  0  0  0  0  0  0  0  0  0  0
   -1.1753    7.8322    0.4344 C   0  0  0  0  0  3  0  0  0  0  0  0
   -2.5032    6.7145    0.9842 S   0  0  0  0  0  0  0  0  0  0  0  0
   -3.8822    6.8727   -0.1691 C   0  0  2  0  0  0  0  0  0  0  0  0
   -4.7419    7.9310    0.3157 N   0  0  0  0  0  0  0  0  0  0  0  0
   -4.2512    9.2583    0.4059 C   0  0  0  0  0  0  0  0  0  0  0  0
   -4.6281   10.0993    1.3474 C   0  0  0  0  0  3  0  0  0  0  0  0
  1  2  1  0
  2  3  1  0
  3  4  1  0
  4  5  1  0
  5  6  1  1
  6  7  1  0
  5  8  1  0
  8  9  1  6
  9 10  1  0
  8 11  1  0
 11 12  1  0
 12 13  1  0
 13 14  1  0
 14 15  1  0
 15 16  1  0
 16 17  1  0
 17 18  1  0
 18 19  1  0
 19 20  1  0
 20 21  1  0
 21 22  1  1
 21 23  1  0
 23 24  1  0
 25 24  1  6
 25 26  1  0
 26 27  1  0
 27 28  1  0
 28 29  1  0
 29 30  1  0
 30 31  1  1
 31 32  1  0
 32 33  1  0
 33 34  1  0
 34 35  1  0
 35 36  1  6
 36 37  1  0
 30 38  1  0
 38 39  1  0
 39 40  1  0
 40 41  1  0
 41 42  1  6
 41 43  1  0
 43 44  1  0
 44 45  1  0
 45 46  1  0
 46 47  1  0
 47 48  1  0
 48 49  1  0
 49 50  1  1
 50 51  1  0
 51 52  1  0
 52 53  1  0
 53 54  1  0
 54 55  1  0
 55 56  1  0
 56 57  1  0
 57 58  1  0
 58 59  1  0
 59 60  1  0
 60 61  1  0
 61 62  1  0
 49 63  1  0
 63 64  1  0
 64 65  1  0
 65 66  1  0
 66 67  1  0
 67 68  1  0
 68 69  1  1
 69 70  1  0
 70 71  1  1
 70 72  1  0
 72 73  1  0
 73 74  1  0
 74 75  1  0
 75 76  1  0
 68 77  1  0
 77 78  1  0
 78 79  1  0
 79 80  1  0
 80 81  1  0
 81 82  1  0
 82 83  1  0
 83 84  1  0
 84 85  1  1
 85 86  1  0
 86 87  2  0
 84  1  1  0
 35 25  1  0
M  RAD  8   3   2  10   3  11   2  14   2  16   2  20   2  23   2  24   2
M  RAD  8  26   2  28   2  31   2  32   2  33   2  37   3  38   2  39   2
M  RAD  8  43   2  44   2  47   2  50   2  52   2  54   2  57   2  59   2
M  RAD  8  62   3  63   2  64   2  66   2  69   2  72   2  73   2  74   2
M  RAD  6  76   3  78   2  79   2  80   2  82   2  87   2
M  END
$$$$
