
     RDKit          3D

 29 29  0  0  0  0  0  0  0  0999 V2000
    6.7320    0.8332    2.0651 C   0  0  0  0  0  0  0  0  0  0  0  0
    6.2671    0.2761    0.7389 C   0  0  0  0  0  0  0  0  0  0  0  0
    5.9735    1.3811   -0.2533 C   0  0  2  0  0  0  0  0  0  0  0  0
    4.8922    2.3176    0.2361 C   0  0  0  0  0  0  0  0  0  0  0  0
    5.6167    0.7890   -1.5510 C   0  0  0  0  0  0  0  0  0  0  0  0
    6.3615    1.0943   -2.5422 O   0  0  0  0  0  0  0  0  0  0  0  0
    4.5333   -0.0636   -1.7334 O   0  0  0  0  0  0  0  0  0  0  0  0
    4.3222   -0.5509   -3.0459 C   0  0  0  0  0  3  0  0  0  0  0  0
    3.1405   -1.4578   -3.1535 C   0  0  0  0  0  0  0  0  0  0  0  0
    2.4350   -1.6501   -1.8301 C   0  0  2  0  0  0  0  0  0  0  0  0
    1.2568   -2.5809   -2.0436 C   0  0  0  0  0  0  0  0  0  0  0  0
    1.9335   -0.3475   -1.3765 C   0  0  0  0  0  0  0  0  0  0  0  0
    0.6736   -0.0391   -1.1870 C   0  0  0  0  0  0  0  0  0  0  0  0
   -0.4320   -0.9436   -1.3973 C   0  0  0  0  0  0  0  0  0  0  0  0
   -1.6681   -0.5397   -1.1789 C   0  0  0  0  0  0  0  0  0  0  0  0
   -2.0278    0.8250   -0.7156 C   0  0  2  0  0  0  0  0  0  0  0  0
   -0.8162    1.7226   -0.6098 C   0  0  0  0  0  0  0  0  0  0  0  0
   -2.7472    0.7253    0.5932 C   0  0  2  0  0  0  0  0  0  0  0  0
   -3.1090    2.1191    1.0562 C   0  0  0  0  0  0  0  0  0  0  0  0
   -4.4184    2.4938    0.4048 C   0  0  0  0  0  0  0  0  0  0  0  0
   -5.2223    1.2469    0.2177 C   0  0  0  0  0  3  0  0  0  0  0  0
   -5.4017    0.4657    1.5156 C   0  0  0  0  0  0  0  0  0  0  0  0
   -6.9186    0.3029    1.6842 C   0  0  0  0  0  2  0  0  0  0  0  0
   -1.9764   -0.0475    1.6373 C   0  0  0  0  0  0  0  0  0  0  0  0
   -2.5602    0.2082    2.8784 O   0  0  0  0  0  0  0  0  0  0  0  0
   -3.3592   -0.8123    3.2674 N   0  0  0  0  0  0  0  0  0  0  0  0
   -4.2194   -1.5125    2.3956 C   0  0  0  0  0  0  0  0  0  0  0  0
   -4.3802   -2.7432    2.5249 O   0  0  0  0  0  0  0  0  0  0  0  0
   -4.8814   -0.8404    1.4028 O   0  0  0  0  0  0  0  0  0  0  0  0
  1  2  1  0
  2  3  1  0
  3  4  1  1
  3  5  1  0
  5  6  2  0
  5  7  1  0
  7  8  1  0
  8  9  1  0
  9 10  1  0
 10 11  1  6
 10 12  1  0
 12 13  2  3
 13 14  1  0
 14 15  2  3
 15 16  1  0
 16 17  1  1
 16 18  1  0
 18 19  1  1
 19 20  1  0
 20 21  1  0
 21 22  1  0
 22 23  1  0
 18 24  1  0
 24 25  1  0
 25 26  1  0
 26 27  1  0
 27 28  2  0
 27 29  1  0
 29 22  1  0
M  RAD  3   8   2  21   2  23   3
M  END
$$$$
