
     RDKit          3D

 26 26  0  0  0  0  0  0  0  0999 V2000
    2.8920    3.1746   -3.6997 C   0  0  0  0  0  0  0  0  0  0  0  0
    3.2007    2.0648   -2.7310 C   0  0  0  0  0  0  0  0  0  0  0  0
    2.0601    1.1283   -2.4999 C   0  0  0  0  0  0  0  0  0  0  0  0
    3.8723    2.5440   -1.4836 C   0  0  0  0  0  0  0  0  0  0  0  0
    4.1472    1.3917   -0.5714 C   0  0  0  0  0  0  0  0  0  0  0  0
    2.8872    0.6567   -0.1528 C   0  0  0  0  0  0  0  0  0  0  0  0
    3.3004   -0.4678    0.7526 C   0  0  1  0  0  0  0  0  0  0  0  0
    4.0146    0.0117    1.9807 C   0  0  0  0  0  0  0  0  0  0  0  0
    2.1969   -1.4343    1.0831 C   0  0  0  0  0  3  0  0  0  0  0  0
    1.6328   -2.0864   -0.1344 C   0  0  0  0  0  0  0  0  0  0  0  0
    0.5578   -3.0759    0.1418 C   0  0  0  0  0  0  0  0  0  0  0  0
   -0.6499   -2.5504    0.8357 C   0  0  2  0  0  0  0  0  0  0  0  0
   -1.6918   -3.6213    1.0823 C   0  0  0  0  0  0  0  0  0  0  0  0
   -1.2876   -1.3553    0.1763 C   0  0  1  0  0  0  0  0  0  0  0  0
   -0.3869   -0.1754    0.0691 C   0  0  0  0  0  0  0  0  0  0  0  0
   -1.1130    1.1396    0.2877 C   0  0  0  0  0  0  0  0  0  0  0  0
   -0.6321    2.1727   -0.7075 C   0  0  0  0  0  0  0  0  0  0  0  0
   -0.8690    1.6841    1.6750 C   0  0  0  0  0  0  0  0  0  0  0  0
   -2.1968    2.1888    2.2514 C   0  0  0  0  0  3  0  0  0  0  0  0
   -3.2419    1.8990    1.3802 O   0  0  0  0  0  0  0  0  0  0  0  0
   -3.8479    0.6875    1.6478 C   0  0  0  0  0  0  0  0  0  0  0  0
   -3.3653   -0.3529    0.8891 O   0  0  0  0  0  0  0  0  0  0  0  0
   -4.0054   -0.5075   -0.3246 C   0  0  0  0  0  0  0  0  0  0  0  0
   -2.9639   -0.5646   -1.4157 C   0  0  0  0  0  0  0  0  0  0  0  0
   -1.9317   -1.6603   -1.1339 C   0  0  2  0  0  0  0  0  0  0  0  0
   -2.5789   -2.8917   -1.1508 O   0  0  0  0  0  0  0  0  0  0  0  0
  1  2  1  0
  2  3  1  0
  2  4  1  0
  4  5  1  0
  5  6  1  0
  6  7  1  0
  7  8  1  1
  7  9  1  0
  9 10  1  0
 10 11  1  0
 11 12  1  0
 12 13  1  6
 12 14  1  0
 14 15  1  6
 15 16  1  0
 16 17  1  0
 16 18  1  0
 18 19  1  0
 19 20  1  0
 20 21  1  0
 21 22  1  0
 22 23  1  0
 23 24  1  0
 24 25  1  0
 25 26  1  1
 25 14  1  0
M  RAD  2   9   2  19   2
M  END
$$$$
