
     RDKit          3D

  5  4  0  0  0  0  0  0  0  0999 V2000
   -1.3938   -0.8604   -0.2602 F   0  0  0  0  0  0  0  0  0  0  0  0
   -0.4470    0.0035    0.1381 C   0  0  0  0  0  0  0  0  0  0  0  0
   -0.7803    1.1792    0.3833 O   0  0  0  0  0  0  0  0  0  0  0  0
    0.8935   -0.4113    0.2754 N   0  0  0  0  0  0  0  0  0  0  0  0
    1.7277    0.0890   -0.5367 O   0  0  0  0  0  0  0  0  0  0  0  0
  1  2  1  0
  2  3  2  0
  2  4  1  0
  4  5  2  0
M  END
$$$$
