
     RDKit          3D

 41 41  0  0  0  0  0  0  0  0999 V2000
  -14.0354    1.1186   -2.4660 C   0  0  0  0  0  0  0  0  0  0  0  0
  -12.7254    1.2090   -2.6787 C   0  0  0  0  0  0  0  0  0  0  0  0
  -11.8386    0.4436   -1.8048 C   0  0  0  0  0  0  0  0  0  0  0  0
  -12.3084   -0.2805   -0.8711 O   0  0  0  0  0  0  0  0  0  0  0  0
  -10.4230    0.4567   -1.9315 N   0  0  0  0  0  0  0  0  0  0  0  0
   -9.6150   -0.3057   -1.0412 C   0  0  0  0  0  0  0  0  0  0  0  0
  -10.1728   -1.0608   -0.0049 C   0  0  0  0  0  0  0  0  0  0  0  0
   -9.4210   -1.8087    0.8611 C   0  0  0  0  0  0  0  0  0  0  0  0
   -8.0497   -1.8238    0.7126 C   0  0  0  0  0  0  0  0  0  0  0  0
   -7.4952   -1.0793   -0.3115 C   0  0  0  0  0  0  0  0  0  0  0  0
   -8.2457   -0.3198   -1.1917 C   0  0  0  0  0  0  0  0  0  0  0  0
   -7.5881    0.4228   -2.1994 N   0  0  0  0  0  0  0  0  0  0  0  0
   -6.1600    0.2603   -2.2903 C   0  0  0  0  0  0  0  0  0  0  0  0
   -5.8190   -0.9931   -2.5122 N   0  0  0  0  0  0  0  0  0  0  0  0
   -4.4171   -1.2907   -2.6262 C   0  0  0  0  0  0  0  0  0  0  0  0
   -3.4517   -0.0416   -3.4855 S   0  0  0  0  0  0  0  0  0  0  0  0
   -3.4147    1.4046   -2.4256 N   0  0  0  0  0  0  0  0  0  0  0  0
   -2.1861    1.6008   -1.7001 C   0  0  0  0  0  0  0  0  0  0  0  0
   -1.9740    1.0987   -0.5145 C   0  0  0  0  0  0  0  0  0  0  0  0
   -0.7169    1.2932    0.2333 C   0  0  0  0  0  0  0  0  0  0  0  0
   -0.6028    0.7488    1.4109 C   0  0  0  0  0  0  0  0  0  0  0  0
    0.4373    0.7717    2.2992 N   0  0  0  0  0  0  0  0  0  0  0  0
    1.8080    1.1012    2.1784 C   0  0  0  0  0  0  0  0  0  0  0  0
    2.6061    0.1570    1.3278 C   0  0  0  0  0  0  0  0  0  0  0  0
    4.0212    0.6064    1.3808 N   0  0  0  0  0  0  0  0  0  0  0  0
    4.4786    0.3482    2.7599 C   0  0  0  0  0  0  0  0  0  0  0  0
    4.5162   -1.1190    3.0045 C   0  0  0  0  0  0  0  0  0  0  0  0
    5.3642   -1.7797    2.1748 O   0  0  0  0  0  0  0  0  0  0  0  0
    6.7309   -1.4643    2.3857 C   0  0  0  0  0  0  0  0  0  0  0  0
    7.1164   -1.7862    3.7769 C   0  0  0  0  0  0  0  0  0  0  0  0
    8.4913   -1.6063    4.1720 C   0  0  0  0  0  0  0  0  0  0  0  0
    9.1723   -0.3494    4.0790 C   0  0  0  0  0  0  0  0  0  0  0  0
    9.4406    0.3613    2.8440 C   0  0  0  0  0  0  0  0  0  0  0  0
   10.2376   -0.3012    1.8980 O   0  0  0  0  0  0  0  0  0  0  0  0
   10.5714    0.4769    0.8566 C   0  0  0  0  0  0  0  0  0  0  0  0
    9.5198    1.0359   -0.0133 C   0  0  0  0  0  0  0  0  0  0  0  0
    9.8842    1.8918   -1.1285 C   0  0  0  0  0  0  0  0  0  0  0  0
   10.7013    1.4093   -2.2014 C   0  0  0  0  0  0  0  0  0  0  0  0
   12.0426    0.8592   -2.0778 C   0  0  0  0  0  0  0  0  0  0  0  0
   12.1397   -0.3872   -1.3397 C   0  0  0  0  0  0  0  0  0  0  0  0
   11.3805   -1.3610   -1.5398 O   0  0  0  0  0  0  0  0  0  0  0  0
  1  2  2  0
  2  3  1  0
  3  4  2  0
  3  5  1  0
  5  6  1  0
  6  7  2  0
  7  8  1  0
  8  9  2  0
  9 10  1  0
 10 11  2  0
 11 12  1  0
 12 13  1  0
 13 14  2  3
 14 15  1  0
 15 16  1  0
 16 17  1  0
 17 18  1  0
 18 19  2  3
 19 20  1  0
 20 21  2  3
 21 22  1  0
 22 23  1  0
 23 24  1  0
 24 25  1  0
 25 26  1  0
 26 27  1  0
 27 28  1  0
 28 29  1  0
 29 30  1  0
 30 31  1  0
 31 32  1  0
 32 33  1  0
 33 34  1  0
 34 35  1  0
 35 36  1  0
 36 37  1  0
 37 38  1  0
 38 39  1  0
 39 40  1  0
 40 41  2  0
 11  6  1  0
M  END
$$$$
