
     RDKit          3D

 39 40  0  0  0  0  0  0  0  0999 V2000
   -5.9325    3.5545    0.4102 O   0  0  0  0  0  0  0  0  0  0  0  0
   -6.7842    2.6438   -0.3857 C   0  0  0  0  0  0  0  0  0  0  0  0
   -6.1117    1.2871   -0.4273 C   0  0  1  0  0  0  0  0  0  0  0  0
   -5.3767    1.0274   -1.5751 N   0  0  0  0  0  0  0  0  0  0  0  0
   -5.5903   -0.4028   -1.9908 C   0  0  2  0  0  0  0  0  0  0  0  0
   -6.5783   -1.0773   -1.0614 C   0  0  0  0  0  0  0  0  0  0  0  0
   -6.5090   -2.4743   -1.1653 O   0  0  0  0  0  0  0  0  0  0  0  0
   -5.2377   -3.0186   -1.1232 C   0  0  0  0  0  3  0  0  0  0  0  0
   -4.4017   -2.3963   -2.0519 O   0  0  0  0  0  0  0  0  0  0  0  0
   -4.2616   -1.0750   -1.6594 C   0  0  2  0  0  0  0  0  0  0  0  0
   -4.2296   -1.1234   -0.2529 O   0  0  0  0  0  0  0  0  0  0  0  0
   -3.0421   -0.7753    0.2922 C   0  0  1  0  0  0  0  0  0  0  0  0
   -2.4452   -2.0305    0.8276 O   0  0  0  0  0  0  0  0  0  0  0  0
   -2.0290   -0.1452   -0.6007 C   0  0  1  0  0  0  0  0  0  0  0  0
   -2.2993    1.2473   -0.7137 O   0  0  0  0  0  0  0  0  0  0  0  0
   -2.7966    1.6528    0.5470 C   0  0  0  0  0  0  0  0  0  0  0  0
   -4.0444    2.3281    0.4354 O   0  0  0  0  0  0  0  0  0  0  0  0
   -4.9987    1.2824    0.7123 C   0  0  1  0  0  0  0  0  0  0  0  0
   -5.5988    1.2850    1.9247 O   0  0  0  0  0  0  0  0  0  0  0  0
   -4.7958    0.9697    3.0079 C   0  0  0  0  0  2  0  0  0  0  0  0
   -0.7691   -0.3281   -0.2947 O   0  0  0  0  0  0  0  0  0  0  0  0
   -0.4981   -1.5915   -0.1988 O   0  0  0  0  0  0  0  0  0  0  0  0
    0.4601   -1.8309    0.9412 C   0  0  0  0  0  3  0  0  0  0  0  0
    1.2335   -0.5065    0.9988 C   0  0  0  0  0  0  0  0  0  0  0  0
    1.4697   -0.2349   -0.5852 C   0  0  0  0  0  0  0  0  0  0  0  0
    2.5017   -1.1742   -0.8152 O   0  0  0  0  0  0  0  0  0  0  0  0
    3.6856   -0.4829   -0.7976 N   0  0  0  0  0  3  0  0  0  0  0  0
    3.6257    0.8658   -0.6168 O   0  0  0  0  0  0  0  0  0  0  0  0
    4.7096   -1.0227   -0.4847 O   0  0  0  0  0  0  0  0  0  0  0  0
    5.6259   -0.2071    0.1256 O   0  0  0  0  0  0  0  0  0  0  0  0
    6.2035   -0.9397    0.9780 O   0  0  0  0  0  0  0  0  0  0  0  0
    7.2825   -1.9586    0.0610 N   0  0  0  0  0  3  0  0  0  0  0  0
    6.7355   -1.7581   -1.0698 O   0  0  0  0  0  0  0  0  0  0  0  0
    8.0546   -0.8490    0.4261 S   0  0  0  0  0  0  0  0  0  0  0  0
    8.8110    0.2498    0.8102 C   0  0  0  0  0  0  0  0  0  0  0  0
    9.8865    1.7927    1.3702 C   0  0  0  0  0  0  0  0  0  0  0  0
    9.2106    2.5605    0.2243 O   0  0  0  0  0  0  0  0  0  0  0  0
    8.0391    2.4352   -0.3836 C   0  0  0  0  0  0  0  0  0  0  0  0
    6.7953    2.2208   -0.3648 C   0  0  0  0  0  0  0  0  0  0  0  0
  1  2  1  0
  3  2  1  6
  3  4  1  0
  4  5  1  0
  5  6  1  1
  6  7  1  0
  7  8  1  0
  8  9  1  0
  5 10  1  0
 10 11  1  1
 11 12  1  0
 12 13  1  6
 12 14  1  0
 14 15  1  0
 15 16  1  0
 16 17  1  0
 17 18  1  0
 18 19  1  1
 19 20  1  0
 14 21  1  1
 21 22  1  0
 22 23  1  0
 23 24  1  0
 24 25  1  0
 25 26  1  0
 26 27  1  0
 27 28  1  0
 27 29  1  0
 29 30  1  0
 30 31  1  0
 31 32  1  0
 32 33  1  0
 32 34  1  0
 34 35  3  0
 35 36  1  0
 36 37  1  0
 37 38  1  0
 38 39  2  0
 18  3  1  0
 10  9  1  0
M  CHG  2  27   1  32   1
M  RAD  5   8   2  20   3  23   2  27   2  32   2
M  END
$$$$
