
     RDKit          3D

 28 28  0  0  0  0  0  0  0  0999 V2000
    6.4822   -0.3012   -0.3156 C   0  0  0  0  0  0  0  0  0  0  0  0
    6.8901    0.9741   -0.6397 O   0  0  0  0  0  0  0  0  0  0  0  0
    5.8465    1.8981   -0.6156 C   0  0  0  0  0  3  0  0  0  0  0  0
    4.8165    1.5483   -1.4809 O   0  0  0  0  0  0  0  0  0  0  0  0
    3.7561    0.9255   -0.8232 C   0  0  2  0  0  0  0  0  0  0  0  0
    2.7163    0.5997   -1.8580 C   0  0  0  0  0  0  0  0  0  0  0  0
    3.2475    1.7673    0.2308 C   0  0  0  0  0  3  0  0  0  0  0  0
    2.2788    1.4386    1.2176 C   0  0  1  0  0  0  0  0  0  0  0  0
    0.9475    1.0036    0.7531 C   0  0  0  0  0  3  0  0  0  0  0  0
    1.0133   -0.3342    0.0729 C   0  0  0  0  0  0  0  0  0  0  0  0
   -0.3056   -0.8295   -0.4205 C   0  0  2  0  0  0  0  0  0  0  0  0
   -1.0722    0.2607   -1.6183 S   0  0  0  0  0  0  0  0  0  0  0  0
   -1.1489   -1.2644    0.5728 O   0  0  0  0  0  0  0  0  0  0  0  0
   -1.3551   -2.9791    0.4133 S   0  0  0  0  0  0  0  0  0  0  0  0
   -2.9305   -3.3431   -0.4484 C   0  0  0  0  0  0  0  0  0  0  0  0
   -4.0388   -3.2456    0.6030 C   0  0  0  0  0  0  0  0  0  0  0  0
   -5.1733   -2.3630    0.1180 C   0  0  1  0  0  0  0  0  0  0  0  0
   -5.9182   -1.9981    1.2600 O   0  0  0  0  0  0  0  0  0  0  0  0
   -4.5346   -0.8616   -0.6800 S   0  0  0  0  0  0  0  0  0  0  0  0
   -3.1263   -0.1988    0.2126 C   0  0  2  0  0  0  0  0  0  0  0  0
   -3.3909   -0.0520    1.5630 O   0  0  0  0  0  0  0  0  0  0  0  0
   -2.5023    1.1964   -0.5567 S   0  0  0  0  0  0  0  0  0  0  0  0
   -3.3789    2.2164   -1.6180 C   0  0  2  0  0  0  0  0  0  0  0  0
   -2.6336    3.2677   -2.0939 O   0  0  0  0  0  0  0  0  0  0  0  0
   -4.6438    2.5906   -1.0671 N   0  0  0  0  0  0  0  0  0  0  0  0
    2.7005    0.6175    2.3967 C   0  0  0  0  0  3  0  0  0  0  0  0
    3.1983   -0.6233    2.0701 O   0  0  0  0  0  0  0  0  0  0  0  0
    2.2597   -1.9108    2.6796 S   0  0  0  0  0  0  0  0  0  0  0  0
  1  2  1  0
  2  3  1  0
  3  4  1  0
  4  5  1  0
  5  6  1  6
  5  7  1  0
  8  7  1  6
  8  9  1  0
  9 10  1  0
 11 10  1  1
 11 12  1  0
 11 13  1  0
 13 14  1  0
 14 15  1  0
 15 16  1  0
 16 17  1  0
 17 18  1  1
 17 19  1  0
 19 20  1  0
 20 21  1  1
 20 22  1  0
 22 23  1  0
 23 24  1  0
 23 25  1  1
  8 26  1  0
 26 27  1  0
 27 28  1  0
 22 12  1  0
M  RAD  4   3   2   7   2   9   2  26   2
M  END
$$$$
