
     RDKit          3D

 24 25  0  0  0  0  0  0  0  0999 V2000
    1.6488    1.7630   -1.1851 C   0  0  0  0  0  0  0  0  0  0  0  0
    1.6197    0.2779   -0.9895 C   0  0  1  0  0  0  0  0  0  0  0  0
    2.8021   -0.3769   -1.6362 C   0  0  0  0  0  0  0  0  0  0  0  0
    3.6347   -1.1085   -0.5941 C   0  0  2  0  0  0  0  0  0  0  0  0
    2.8378   -2.0115    0.1266 O   0  0  0  0  0  0  0  0  0  0  0  0
    4.0899   -0.0467    0.3987 C   0  0  2  0  0  0  0  0  0  0  0  0
    4.9546   -0.6067    1.3307 O   0  0  0  0  0  0  0  0  0  0  0  0
    2.8797    0.5963    1.0597 C   0  0  1  0  0  0  0  0  0  0  0  0
    2.8970    1.9464    0.8035 O   0  0  0  0  0  0  0  0  0  0  0  0
    1.6097   -0.0472    0.4735 C   0  0  1  0  0  0  0  0  0  0  0  0
    0.5037    0.6272    1.0676 N   0  0  0  0  0  0  0  0  0  0  0  0
   -0.7389    0.4385    0.2689 C   0  0  1  0  0  0  0  0  0  0  0  0
   -1.0464   -1.0314    0.3436 C   0  0  0  0  0  0  0  0  0  0  0  0
   -2.1506   -1.4279   -0.6247 C   0  0  2  0  0  0  0  0  0  0  0  0
   -3.0450   -2.2756    0.0211 O   0  0  0  0  0  0  0  0  0  0  0  0
   -1.5803   -2.1979   -1.7931 C   0  0  0  0  0  0  0  0  0  0  0  0
   -2.7671   -0.2953   -1.1416 O   0  0  0  0  0  0  0  0  0  0  0  0
   -3.6259    0.3143   -0.2450 C   0  0  1  0  0  0  0  0  0  0  0  0
   -3.9698   -0.4918    0.8309 O   0  0  0  0  0  0  0  0  0  0  0  0
   -2.9791    1.5463    0.2802 C   0  0  2  0  0  0  0  0  0  0  0  0
   -2.7745    2.5134   -0.6813 O   0  0  0  0  0  0  0  0  0  0  0  0
   -1.7404    1.2802    1.1133 C   0  0  1  0  0  0  0  0  0  0  0  0
   -2.0869    0.3905    2.1384 O   0  0  0  0  0  0  0  0  0  0  0  0
   -0.9727    0.2235    2.8573 O   0  0  0  0  0  0  0  0  0  0  0  0
  2  1  1  1
  2  3  1  0
  3  4  1  0
  4  5  1  1
  4  6  1  0
  6  7  1  1
  6  8  1  0
  8  9  1  6
  8 10  1  0
 10 11  1  1
 12 11  1  1
 12 13  1  0
 13 14  1  0
 14 15  1  0
 14 16  1  6
 14 17  1  0
 17 18  1  0
 18 19  1  1
 18 20  1  0
 20 21  1  6
 20 22  1  0
 22 23  1  1
 23 24  1  0
 10  2  1  0
 22 12  1  0
M  END
$$$$
