
     RDKit          3D

 29 31  0  0  0  0  0  0  0  0999 V2000
   -5.7702   -0.3899    2.6282 C   0  0  0  0  0  0  0  0  0  0  0  0
   -6.4987   -0.1587    1.4537 O   0  0  0  0  0  0  0  0  0  0  0  0
   -5.9253    0.0386    0.2135 C   0  0  0  0  0  0  0  0  0  0  0  0
   -4.5943    0.0200    0.1706 C   0  0  0  0  0  0  0  0  0  0  0  0
   -3.8802    0.2136   -1.0639 C   0  0  0  0  0  0  0  0  0  0  0  0
   -2.6591    0.2133   -1.2049 C   0  0  0  0  0  0  0  0  0  0  0  0
   -1.9085   -0.0169    0.0825 C   0  0  0  0  0  0  0  0  0  0  0  0
   -2.4251   -1.1420    0.5877 C   0  0  0  0  0  0  0  0  0  0  0  0
   -2.0195   -1.8671    1.8750 C   0  0  0  0  0  0  0  0  0  0  0  0
   -0.7260   -2.6742    1.5082 C   0  0  0  0  0  3  0  0  0  0  0  0
   -0.5725   -3.2801    0.1730 C   0  0  0  0  0  0  0  0  0  0  0  0
    0.4386   -2.6682   -0.8262 C   0  0  0  0  0  3  0  0  0  0  0  0
    0.8397   -1.3413   -0.8424 C   0  0  0  0  0  0  0  0  0  0  0  0
    0.2003   -0.4790   -1.4588 C   0  0  0  0  0  0  0  0  0  0  0  0
    0.7290    0.3406   -0.1020 C   0  0  0  0  0  0  0  0  0  0  0  0
    0.4144    1.0754   -0.2743 C   0  0  0  0  0  0  0  0  0  0  0  0
    1.8505   -0.2578   -0.3309 C   0  0  0  0  0  0  0  0  0  0  0  0
    2.4227    0.4195   -1.4204 N   0  0  0  0  0  0  0  0  0  0  0  0
    3.6316    0.8352   -1.4508 C   0  0  0  0  0  0  0  0  0  0  0  0
    4.4606    0.5873   -0.2792 C   0  0  0  0  0  0  0  0  0  0  0  0
    5.7177    1.0067   -0.2820 C   0  0  0  0  0  0  0  0  0  0  0  0
    6.5023    0.7338    0.9126 C   0  0  0  0  0  0  0  0  0  0  0  0
    7.7688    1.0904    1.0572 C   0  0  0  0  0  0  0  0  0  0  0  0
    8.4247    1.8103   -0.0652 C   0  0  0  0  0  0  0  0  0  0  0  0
   -0.8011    0.8414    0.5643 C   0  0  0  0  0  0  0  0  0  0  0  0
   -1.0209    1.8638    1.4508 N   0  0  0  0  0  0  0  0  0  0  0  0
   -2.0944    3.0709    0.8421 Cl  0  0  0  0  0  0  0  0  0  0  0  0
   -1.9013    0.3141   -2.4816 N   0  0  0  0  0  3  0  0  0  0  0  0
   -0.6037   -0.1998   -2.5704 N   0  0  0  0  0  0  0  0  0  0  0  0
  1  2  1  0
  2  3  1  0
  3  4  2  3
  4  5  1  0
  5  6  2  3
  6  7  1  0
  7  8  2  3
  8  9  1  0
  9 10  1  0
 10 11  1  0
 11 12  1  0
 12 13  1  0
 13 14  2  0
 14 15  1  0
 15 16  2  0
 16 17  1  0
 17 18  1  0
 18 19  2  3
 19 20  1  0
 20 21  2  3
 21 22  1  0
 22 23  2  3
 23 24  1  0
 16 25  1  0
 25 26  1  0
 26 27  1  0
  6 28  1  0
 28 29  2  3
 25  7  1  0
 17 13  1  0
 29 14  1  0
M  CHG  1  28   1
M  RAD  3  10   2  12   2  28   2
M  END
$$$$
