
     RDKit          3D

 51 54  0  0  0  0  0  0  0  0999 V2000
   -8.7596   -2.4412    2.8829 C   0  0  0  0  0  0  0  0  0  0  0  0
   -8.3895   -2.3034    1.4197 C   0  0  1  0  0  0  0  0  0  0  0  0
   -9.6476   -2.1258    0.6406 C   0  0  0  0  0  0  0  0  0  0  0  0
   -9.4052   -1.9065   -0.8351 C   0  0  2  0  0  0  0  0  0  0  0  0
   -9.2786   -3.1032   -1.5311 O   0  0  0  0  0  0  0  0  0  0  0  0
   -8.2310   -0.9766   -1.0686 C   0  0  2  0  0  0  0  0  0  0  0  0
   -7.1178   -1.7911   -1.2740 O   0  0  0  0  0  0  0  0  0  0  0  0
   -7.9994   -0.2120    0.2367 C   0  0  1  0  0  0  0  0  0  0  0  0
   -9.2383    0.1663    0.7458 O   0  0  0  0  0  0  0  0  0  0  0  0
   -7.3576   -1.2175    1.1998 C   0  0  1  0  0  0  0  0  0  0  0  0
   -7.0961   -0.4430    2.4791 C   0  0  0  0  0  0  0  0  0  0  0  0
   -6.6263   -1.2894    3.4873 O   0  0  0  0  0  0  0  0  0  0  0  0
   -8.3052    0.3434    2.9320 C   0  0  0  0  0  1  0  0  0  0  0  0
   -5.9824    0.5448    2.2040 C   0  0  0  0  0  0  0  0  0  0  0  0
   -4.7002   -0.0893    1.7805 C   0  0  0  0  0  0  0  0  0  0  0  0
   -4.7210   -0.8320    0.6449 O   0  0  0  0  0  0  0  0  0  0  0  0
   -4.3816   -0.2119   -0.5255 C   0  0  1  0  0  0  0  0  0  0  0  0
   -5.1545    0.8907   -0.8324 O   0  0  0  0  0  0  0  0  0  0  0  0
   -2.8981    0.1270   -0.6387 C   0  0  2  0  0  0  0  0  0  0  0  0
   -2.1435   -0.6100    0.2578 O   0  0  0  0  0  0  0  0  0  0  0  0
   -2.7855    1.6253   -0.3930 C   0  0  1  0  0  0  0  0  0  0  0  0
   -3.8300    1.9255    0.6951 C   0  0  0  0  0  0  0  0  0  0  0  0
   -3.5871    0.9050    1.7839 C   0  0  0  0  0  0  0  0  0  0  0  0
   -3.5146    1.6094    3.1294 C   0  0  0  0  0  0  0  0  0  0  0  0
   -3.0747    2.9266    2.9713 O   0  0  0  0  0  0  0  0  0  0  0  0
   -1.8938    2.9485    2.3650 O   0  0  0  0  0  0  0  0  0  0  0  0
   -1.3363    1.6681    2.4453 C   0  0  0  0  0  3  0  0  0  0  0  0
   -1.0569    1.1559    1.1743 O   0  0  0  0  0  0  0  0  0  0  0  0
   -1.4559    2.0200    0.1663 C   0  0  1  0  0  0  0  0  0  0  0  0
   -0.4522    2.1840   -0.7978 O   0  0  0  0  0  0  0  0  0  0  0  0
   -0.1167    1.0936   -1.5939 C   0  0  0  0  0  0  0  0  0  0  0  0
    1.4915    0.7191   -1.6509 S   0  0  0  0  0  3  0  0  0  0  0  0
    1.9408   -0.6325   -2.6330 O   0  0  0  0  0  0  0  0  0  0  0  0
    2.8026   -0.1214   -3.6294 C   0  0  0  0  0  0  0  0  0  0  0  0
    3.9182    0.4554   -3.0273 O   0  0  0  0  0  0  0  0  0  0  0  0
    4.5800   -0.5174   -2.2854 C   0  0  2  0  0  0  0  0  0  0  0  0
    5.7095    0.0598   -1.6738 O   0  0  0  0  0  1  0  0  0  0  0  0
    5.0687   -1.5858   -3.2388 C   0  0  0  0  0  0  0  0  0  0  0  0
    5.9369   -0.9991   -4.1606 O   0  0  0  0  0  0  0  0  0  0  0  0
    7.0095   -0.4416   -3.4730 C   0  0  0  0  0  3  0  0  0  0  0  0
    8.0767   -1.4603   -3.2173 C   0  0  0  0  0  3  0  0  0  0  0  0
    8.7033   -1.2560   -1.8507 C   0  0  0  0  0  0  0  0  0  0  0  0
    9.6858   -2.2425   -1.6889 O   0  0  0  0  0  0  0  0  0  0  0  0
   10.3213   -2.1386   -0.4593 C   0  0  0  0  0  3  0  0  0  0  0  0
   11.5010   -1.1888   -0.6219 C   0  0  0  0  0  3  0  0  0  0  0  0
   12.2597   -1.1710    0.6788 C   0  0  0  0  0  0  0  0  0  0  0  0
   13.4380   -0.2315    0.5378 C   0  0  0  0  0  0  0  0  0  0  0  0
   11.4613   -0.8488    1.7695 O   0  0  0  0  0  0  0  0  0  0  0  0
   11.1765    0.4366    1.7895 O   0  0  0  0  0  0  0  0  0  0  0  0
   12.3651    1.1709    1.9331 C   0  0  0  0  0  0  0  0  0  0  0  0
   13.0908    1.0946    0.7504 O   0  0  0  0  0  0  0  0  0  0  0  0
  2  1  1  1
  2  3  1  0
  3  4  1  0
  4  5  1  6
  4  6  1  0
  6  7  1  1
  6  8  1  0
  8  9  1  1
  8 10  1  0
 10 11  1  1
 11 12  1  0
 11 13  1  0
 11 14  1  0
 14 15  1  0
 15 16  1  0
 16 17  1  0
 17 18  1  1
 17 19  1  0
 19 20  1  1
 19 21  1  0
 21 22  1  1
 22 23  1  0
 23 24  1  0
 24 25  1  0
 25 26  1  0
 26 27  1  0
 27 28  1  0
 28 29  1  0
 29 30  1  6
 30 31  1  0
 31 32  2  3
 32 33  1  0
 33 34  1  0
 34 35  1  0
 35 36  1  0
 36 37  1  6
 36 38  1  0
 38 39  1  0
 39 40  1  0
 40 41  1  0
 41 42  1  0
 42 43  1  0
 43 44  1  0
 44 45  1  0
 45 46  1  0
 46 47  1  0
 46 48  1  0
 48 49  1  0
 49 50  1  0
 50 51  1  0
 10  2  1  0
 23 15  1  0
 29 21  1  0
 51 47  1  0
M  CHG  2  32   1  37  -1
M  RAD  6  13   2  27   2  40   2  41   2  44   2  45   2
M  END
$$$$
