
     RDKit          3D

  5  5  0  0  0  0  0  0  0  0999 V2000
    1.1731    0.1832   -0.1919 N   0  0  0  0  0  0  0  0  0  0  0  0
    0.1614    1.2105    0.1183 C   0  0  0  0  0  0  0  0  0  0  0  0
   -1.1044    0.4238   -0.1116 C   0  0  0  0  0  0  0  0  0  0  0  0
   -0.7892   -0.8542   -0.0360 C   0  0  0  0  0  0  0  0  0  0  0  0
    0.5592   -0.9633    0.2213 O   0  0  0  0  0  0  0  0  0  0  0  0
  1  2  1  0
  2  3  1  0
  3  4  2  0
  4  5  1  0
  5  1  1  0
M  END
$$$$
