
     RDKit          3D

 15 16  0  0  0  0  0  0  0  0999 V2000
   -0.6188    1.0337   -2.5853 C   0  0  0  0  0  0  0  0  0  0  0  0
   -1.2895    0.7431   -1.2592 C   0  0  1  0  0  0  0  0  0  0  0  0
   -2.1353   -0.5233   -1.3463 C   0  0  0  0  0  0  0  0  0  0  0  0
   -2.8227   -0.6491    0.0048 C   0  0  2  0  0  0  0  0  0  0  0  0
   -3.3503    0.6209    0.2858 O   0  0  0  0  0  0  0  0  0  0  0  0
   -1.7835   -0.9469    1.0648 C   0  0  2  0  0  0  0  0  0  0  0  0
   -1.8413   -0.0487    2.1261 O   0  0  0  0  0  0  0  0  0  0  0  0
   -0.3788   -0.8255    0.4856 C   0  0  1  0  0  0  0  0  0  0  0  0
   -0.1271   -1.8437   -0.4382 O   0  0  0  0  0  0  0  0  0  0  0  0
   -0.2563    0.5159   -0.1896 C   0  0  1  0  0  0  0  0  0  0  0  0
    1.0655    0.6811   -0.7542 N   0  0  0  0  0  0  0  0  0  0  0  0
    1.9703   -0.3318   -0.2488 C   0  0  0  0  0  3  0  0  0  0  0  0
    3.1602    0.3317    0.3934 C   0  0  0  0  0  0  0  0  0  0  0  0
    3.9869    1.3098   -0.2128 C   0  0  0  0  0  0  0  0  0  0  0  0
    4.4207   -0.0672   -0.0338 O   0  0  0  0  0  0  0  0  0  0  0  0
  2  1  1  6
  2  3  1  0
  3  4  1  0
  4  5  1  1
  4  6  1  0
  6  7  1  1
  6  8  1  0
  8  9  1  6
  8 10  1  0
 10 11  1  6
 11 12  1  0
 12 13  1  0
 13 14  1  0
 13 15  1  0
 10  2  1  0
 15 14  1  0
M  RAD  1  12   2
M  END
$$$$
