
     RDKit          3D

 27 26  0  0  0  0  0  0  0  0999 V2000
   -8.6796    0.1083   -1.5092 C   0  0  0  0  0  0  0  0  0  0  0  0
   -7.3965    0.3192   -0.7294 C   0  0  0  0  0  0  0  0  0  0  0  0
   -7.5371   -0.2012    0.6947 C   0  0  0  0  0  0  0  0  0  0  0  0
   -6.2549   -0.3801   -1.4457 C   0  0  0  0  0  3  0  0  0  0  0  0
   -4.9913   -0.1515   -0.6478 C   0  0  0  0  0  0  0  0  0  0  0  0
   -5.1836   -0.7270    0.7185 C   0  0  0  0  0  0  0  0  0  0  0  0
   -3.9835   -0.5549    1.6118 C   0  0  1  0  0  0  0  0  0  0  0  0
   -4.3157   -1.1824    2.9616 C   0  0  0  0  0  0  0  0  0  0  0  0
   -2.8325   -1.3060    1.0448 C   0  0  0  0  0  3  0  0  0  0  0  0
   -2.3787   -0.9234   -0.3064 C   0  0  0  0  0  0  0  0  0  0  0  0
   -1.9320    0.4677   -0.5031 C   0  0  0  0  0  0  0  0  0  0  0  0
   -0.7996    0.9386    0.3069 C   0  0  2  0  0  0  0  0  0  0  0  0
   -0.9464    0.9209    1.7802 C   0  0  0  0  0  0  0  0  0  0  0  0
   -0.3534    2.3077   -0.1527 C   0  0  0  0  0  3  0  0  0  0  0  0
    0.7937    2.7618    0.7090 C   0  0  0  0  0  0  0  0  0  0  0  0
    1.9031    1.8008    0.6002 C   0  0  0  0  0  0  0  0  0  0  0  0
    1.8394    0.7264   -0.1460 C   0  0  0  0  0  0  0  0  0  0  0  0
    2.9957   -0.1955   -0.2060 C   0  0  0  0  0  0  0  0  0  0  0  0
    4.0933    0.3218    0.6634 C   0  0  2  0  0  0  0  0  0  0  0  0
    3.7111    0.4601    2.1123 C   0  0  0  0  0  0  0  0  0  0  0  0
    4.7853    1.3645    0.1431 O   0  0  0  0  0  0  0  0  0  0  0  0
    5.4787    1.0716   -0.9850 C   0  0  0  0  0  0  0  0  0  0  0  0
    6.5671    0.0765   -0.8519 C   0  0  0  0  0  0  0  0  0  0  0  0
    6.1907   -1.3054   -0.4486 C   0  0  2  0  0  0  0  0  0  0  0  0
    7.4911   -2.1288   -0.3312 C   0  0  0  0  0  0  0  0  0  0  0  0
    5.2723   -2.0567   -1.8596 S   0  0  0  0  0  0  0  0  0  0  0  0
    6.4631   -2.2276   -3.2239 C   0  0  0  0  0  0  0  0  0  0  0  0
  1  2  1  0
  2  3  1  0
  2  4  1  0
  4  5  1  0
  5  6  1  0
  6  7  1  0
  7  8  1  1
  7  9  1  0
  9 10  1  0
 10 11  1  0
 11 12  1  0
 12 13  1  1
 12 14  1  0
 14 15  1  0
 15 16  1  0
 16 17  2  3
 17 18  1  0
 18 19  1  0
 19 20  1  1
 19 21  1  0
 21 22  1  0
 22 23  1  0
 23 24  1  0
 24 25  1  6
 24 26  1  0
 26 27  1  0
M  RAD  3   4   2   9   2  14   2
M  END
$$$$
