
     RDKit          3D

 19 19  0  0  0  0  0  0  0  0999 V2000
   -0.9896   -1.7853   -0.3085 C   0  0  0  0  0  0  0  0  0  0  0  0
   -1.5034   -0.7956   -1.3478 C   0  0  1  0  0  0  0  0  0  0  0  0
   -3.0229   -0.9157   -1.3622 C   0  0  0  0  0  0  0  0  0  0  0  0
   -3.4570   -0.7726    0.0863 C   0  0  2  0  0  0  0  0  0  0  0  0
   -4.8260   -1.0359    0.2139 O   0  0  0  0  0  0  0  0  0  0  0  0
   -3.1703    0.6093    0.5441 C   0  0  2  0  0  0  0  0  0  0  0  0
   -4.1790    1.4931    0.2169 O   0  0  0  0  0  0  0  0  0  0  0  0
   -1.8606    1.1703    0.1823 C   0  0  1  0  0  0  0  0  0  0  0  0
   -1.0423    1.2137    1.3042 O   0  0  0  0  0  0  0  0  0  0  0  0
   -1.1650    0.6188   -0.9833 C   0  0  1  0  0  0  0  0  0  0  0  0
    0.2730    0.7385   -0.8811 N   0  0  0  0  0  0  0  0  0  0  0  0
    0.7010   -0.1451    0.2052 C   0  0  0  0  0  3  0  0  0  0  0  0
    1.9050    0.4448    0.8772 C   0  0  0  0  0  0  0  0  0  0  0  0
    3.1422   -0.0846    0.1890 C   0  0  2  0  0  0  0  0  0  0  0  0
    3.0959    0.2912   -1.1489 O   0  0  0  0  0  0  0  0  0  0  0  0
    3.2369   -1.5826    0.3708 C   0  0  0  0  0  0  0  0  0  0  0  0
    4.3809   -2.0862   -0.2317 O   0  0  0  0  0  0  0  0  0  0  0  0
    4.3371    0.6252    0.7973 C   0  0  0  0  0  3  0  0  0  0  0  0
    4.1442    1.9986    0.5503 O   0  0  0  0  0  0  0  0  0  0  0  0
  2  1  1  1
  2  3  1  0
  3  4  1  0
  4  5  1  6
  4  6  1  0
  6  7  1  6
  6  8  1  0
  8  9  1  1
  8 10  1  0
 10 11  1  1
 11 12  1  0
 12 13  1  0
 13 14  1  0
 14 15  1  6
 14 16  1  0
 16 17  1  0
 14 18  1  0
 18 19  1  0
 10  2  1  0
M  RAD  2  12   2  18   2
M  END
$$$$
