
     RDKit          3D

 47 47  0  0  0  0  0  0  0  0999 V2000
   -6.7452   -1.1886    0.4718 O   0  0  0  0  0  0  0  0  0  0  0  0
   -6.6372   -1.7389   -0.8217 C   0  0  0  0  0  0  0  0  0  0  0  0
   -8.0684   -1.9161   -1.3256 C   0  0  0  0  0  3  0  0  0  0  0  0
   -8.8402   -0.7334   -1.0937 N   0  0  0  0  0  0  0  0  0  0  0  0
   -8.8717   -0.3650    0.3303 C   0  0  2  0  0  0  0  0  0  0  0  0
  -10.2904    0.0743    0.6259 C   0  0  0  0  0  0  0  0  0  0  0  0
  -10.4126    0.4423    1.9636 O   0  0  0  0  0  0  0  0  0  0  0  0
   -7.9282    0.8044    0.4918 C   0  0  1  0  0  0  0  0  0  0  0  0
   -8.5512    2.0147    0.1883 O   0  0  0  0  0  0  0  0  0  0  0  0
   -7.2730    0.8252    1.8632 C   0  0  2  0  0  0  0  0  0  0  0  0
   -7.2949    2.1684    2.3035 O   0  0  0  0  0  0  0  0  0  0  0  0
   -5.9429    0.4533    1.8209 O   0  0  0  0  0  0  0  0  0  0  0  0
   -5.6370   -0.4424    0.8057 C   0  0  2  0  0  0  0  0  0  0  0  0
   -5.0516    0.2413   -0.3465 N   0  0  0  0  0  4  0  0  0  0  0  0
   -4.6987    1.4851    0.0709 O   0  0  0  0  0  0  0  0  0  0  0  0
   -5.9244    0.3202   -1.3754 F   0  0  0  0  0  0  0  0  0  0  0  0
   -3.9289   -0.4999   -0.7924 C   0  0  0  0  0  0  0  0  0  0  0  0
   -3.2001   -1.1247    0.0426 N   0  0  0  0  0  4  0  0  0  0  0  0
   -2.0602   -1.5474    1.0753 S   0  0  0  0  0  0  0  0  0  0  0  0
   -1.7629   -0.5890    2.4699 O   0  0  0  0  0  0  0  0  0  0  0  0
   -0.5756    0.0939    2.4288 C   0  0  2  0  0  0  0  0  0  0  0  0
   -0.4421    0.8391    3.5930 O   0  0  0  0  0  0  0  0  0  0  0  0
   -0.3669    0.9798    1.2540 C   0  0  2  0  0  0  0  0  0  0  0  0
   -1.5730    2.2825    1.0532 S   0  0  0  0  0  0  0  0  0  0  0  0
    0.1195    0.1588   -0.2569 S   0  0  0  0  0  0  0  0  0  0  0  0
    1.7885   -0.5497   -0.0324 C   0  0  2  0  0  0  0  0  0  0  0  0
    2.8072    0.5859    0.1332 C   0  0  0  0  0  0  0  0  0  0  0  0
    4.4502   -0.1034    0.3564 S   0  0  0  0  0  0  0  0  0  0  0  0
    5.0200    0.4710    1.7195 N   0  0  0  0  0  3  0  0  0  0  0  0
    6.6139    0.0314    2.2989 S   0  0  0  0  0  0  0  0  0  0  0  0
    7.7109   -0.0189    0.9736 O   0  0  0  0  0  0  0  0  0  0  0  0
    7.0632    0.2201   -0.1515 O   0  0  0  0  0  0  0  0  0  0  0  0
    7.0422   -0.8190   -0.9459 O   0  0  0  0  0  0  0  0  0  0  0  0
    8.2536   -1.3298   -1.1769 N   0  0  0  0  0  2  0  0  0  0  0  0
    9.5148   -0.1848   -0.6512 S   0  0  0  0  0  0  0  0  0  0  0  0
   10.3774   -0.4834    0.6938 N   0  0  0  0  0  3  0  0  0  0  0  0
   11.3358    0.4483    1.0379 O   0  0  0  0  0  0  0  0  0  0  0  0
   12.6996    0.0502    1.0474 C   0  0  0  0  0  3  0  0  0  0  0  0
   13.3728   -0.0145    2.7301 S   0  0  0  0  0  0  0  0  0  0  0  0
    2.0982   -1.3446   -1.2313 C   0  0  0  0  0  0  0  0  0  0  0  0
    2.3867   -0.7975   -2.3410 N   0  0  0  0  0  4  0  0  0  0  0  0
    2.6811   -1.5500   -3.4811 N   0  0  0  0  0  1  0  0  0  0  0  0
    2.4158    0.5641   -2.4353 O   0  0  0  0  0  0  0  0  0  0  0  0
    1.8970    1.3982   -3.8585 S   0  0  0  0  0  0  0  0  0  0  0  0
    3.3275    2.1079   -4.6795 C   0  0  0  0  0  3  0  0  0  0  0  0
    4.6280    1.8439   -3.9985 C   0  0  0  0  0  0  0  0  0  0  0  0
    4.4735    1.0920   -2.8480 O   0  0  0  0  0  1  0  0  0  0  0  0
  1  2  1  0
  2  3  1  0
  3  4  1  0
  4  5  1  0
  5  6  1  6
  6  7  1  0
  5  8  1  0
  8  9  1  1
  8 10  1  0
 10 11  1  6
 10 12  1  0
 12 13  1  0
 13 14  1  6
 14 15  1  0
 14 16  1  0
 14 17  1  0
 17 18  2  0
 18 19  2  0
 19 20  1  0
 20 21  1  0
 21 22  1  1
 21 23  1  0
 23 24  1  6
 23 25  1  0
 25 26  1  0
 26 27  1  6
 27 28  1  0
 28 29  2  3
 29 30  1  0
 30 31  1  0
 31 32  1  0
 32 33  1  0
 33 34  1  0
 34 35  1  0
 35 36  2  3
 36 37  1  0
 37 38  1  0
 38 39  1  0
 26 40  1  0
 40 41  2  3
 41 42  1  0
 41 43  1  0
 43 44  1  0
 44 45  1  0
 45 46  1  0
 46 47  1  0
 13  1  1  0
M  CHG  8  14   1  18   1  29   1  34   1  36   1  41   1  42   1  47  -1
M  RAD  7   3   2  29   2  34   3  36   2  38   2  42   2  45   2
M  END
$$$$
