
     RDKit          3D

 62 62  0  0  0  0  0  0  0  0999 V2000
  -14.6939    2.1790    2.3167 C   0  0  0  0  0  0  0  0  0  0  0  0
  -13.5296    2.9123    1.6961 C   0  0  0  0  0  0  0  0  0  0  0  0
  -13.6650    3.0404    0.2027 C   0  0  0  0  0  0  0  0  0  0  0  0
  -12.2043    2.3214    2.1155 C   0  0  0  0  0  0  0  0  0  0  0  0
  -12.0737    0.8701    1.7105 C   0  0  0  0  0  0  0  0  0  0  0  0
  -10.7131    0.3917    2.1821 C   0  0  0  0  0  0  0  0  0  0  0  0
  -10.5024   -1.0608    1.8135 C   0  0  1  0  0  0  0  0  0  0  0  0
  -11.5751   -1.9065    2.4682 C   0  0  0  0  0  0  0  0  0  0  0  0
  -10.6477   -1.2513    0.3179 C   0  0  0  0  0  3  0  0  0  0  0  0
  -10.4224   -2.7300    0.0351 C   0  0  0  0  0  0  0  0  0  0  0  0
  -10.5550   -2.9816   -1.4344 C   0  0  0  0  0  0  0  0  0  0  0  0
   -9.5630   -2.2020   -2.2609 C   0  0  0  0  0  3  0  0  0  0  0  0
   -9.6850   -0.7162   -2.0992 C   0  0  0  0  0  0  0  0  0  0  0  0
   -8.1793   -2.7014   -1.9799 C   0  0  0  0  0  3  0  0  0  0  0  0
   -7.6180   -1.9936   -0.7752 C   0  0  0  0  0  0  0  0  0  0  0  0
   -7.5652   -0.5250   -1.0471 C   0  0  0  0  0  0  0  0  0  0  0  0
   -7.0395    0.2248    0.0578 N   0  0  0  0  0  3  0  0  0  0  0  0
   -7.0463   -0.3138    1.1769 N   0  0  0  0  0  2  0  0  0  0  0  0
   -6.8567   -0.1794   -2.3398 C   0  0  0  0  0  0  0  0  0  0  0  0
   -6.8880    1.3271   -2.4687 C   0  0  0  0  0  0  0  0  0  0  0  0
   -5.4023   -0.6633   -2.2881 C   0  0  2  0  0  0  0  0  0  0  0  0
   -4.7265   -0.3121   -3.5711 C   0  0  0  0  0  1  0  0  0  0  0  0
   -5.3452   -2.1488   -2.0632 C   0  0  0  0  0  0  0  0  0  0  0  0
   -4.8305   -0.0506   -1.1777 O   0  0  0  0  0  0  0  0  0  0  0  0
   -3.4951   -0.4077   -1.0137 C   0  0  0  0  0  0  0  0  0  0  0  0
   -2.6598   -0.0158   -2.2141 C   0  0  0  0  0  0  0  0  0  0  0  0
   -1.2340   -0.4425   -1.9425 C   0  0  2  0  0  0  0  0  0  0  0  0
   -1.1318   -1.9290   -1.7284 O   0  0  0  0  0  0  0  0  0  0  0  0
   -0.7126   -1.0101   -0.7827 C   0  0  2  0  0  0  0  0  0  0  0  0
   -1.3130   -1.0281    0.6022 C   0  0  1  0  0  0  0  0  0  0  0  0
   -1.0946   -2.2439    1.2442 O   0  0  0  0  0  0  0  0  0  0  0  0
   -0.5738    0.0445    1.4058 C   0  0  0  0  0  0  0  0  0  0  0  0
    0.8847   -0.3567    1.4019 C   0  0  0  0  0  0  0  0  0  0  0  0
    1.3841   -0.4186    0.0945 O   0  0  0  0  0  0  0  0  0  0  0  0
    1.0795   -1.6972    2.0965 C   0  0  0  0  0  0  0  0  0  0  0  0
    2.5622   -2.0178    2.0453 C   0  0  0  0  0  0  0  0  0  0  0  0
    3.0275   -2.0988    0.6068 C   0  0  0  0  0  0  0  0  0  0  0  0
    4.4851   -2.4136    0.5257 C   0  0  0  0  0  0  0  0  0  0  0  0
    5.3566   -1.3984    1.1927 C   0  0  1  0  0  0  0  0  0  0  0  0
    6.7933   -1.7911    1.0634 C   0  0  0  0  0  0  0  0  0  0  0  0
    5.1359   -0.0448    0.5825 C   0  0  0  0  0  0  0  0  0  0  0  0
    5.9968    1.0188    1.2239 C   0  0  0  0  0  3  0  0  0  0  0  0
    5.7277    2.3345    0.5735 C   0  0  0  0  0  0  0  0  0  0  0  0
    6.5423    3.4505    1.1476 C   0  0  0  0  0  0  0  0  0  0  0  0
    6.1009    4.7139    0.3701 C   0  0  0  0  0  2  0  0  0  0  0  0
    7.9876    3.2873    0.8594 C   0  0  0  0  0  3  0  0  0  0  0  0
    8.2636    3.2410   -0.6126 C   0  0  0  0  0  0  0  0  0  0  0  0
    7.8291    4.5385   -1.2553 C   0  0  0  0  0  0  0  0  0  0  0  0
    8.6195    5.6753   -0.6231 C   0  0  0  0  0  0  0  0  0  0  0  0
   10.0829    5.3891   -0.8922 C   0  0  0  0  0  2  0  0  0  0  0  0
    8.7682    2.3557    1.6705 C   0  0  0  0  0  0  0  0  0  0  0  0
    8.6916    1.0177    1.3805 O   0  0  0  0  0  0  0  0  0  0  0  0
    9.1295    0.7282    0.0789 C   0  0  0  0  0  3  0  0  0  0  0  0
   10.6190    0.6385   -0.0093 C   0  0  0  0  0  3  0  0  0  0  0  0
   11.2783    1.9152    0.5132 C   0  0  0  0  0  0  0  0  0  0  0  0
   12.7837    1.8079    0.4163 C   0  0  0  0  0  2  0  0  0  0  0  0
   11.2056   -0.5532    0.6792 C   0  0  0  0  0  3  0  0  0  0  0  0
   11.7355   -1.5512   -0.3396 C   0  0  1  0  0  0  0  0  0  0  0  0
   12.8101   -0.9099   -1.1910 C   0  0  0  0  0  2  0  0  0  0  0  0
   12.3249   -2.7091    0.4506 C   0  0  0  0  0  0  0  0  0  0  0  0
   12.8842   -3.7660   -0.4786 C   0  0  0  0  0  3  0  0  0  0  0  0
   13.4523   -4.8838    0.3436 C   0  0  0  0  0  0  0  0  0  0  0  0
  1  2  1  0
  2  3  1  0
  2  4  1  0
  4  5  1  0
  5  6  1  0
  6  7  1  0
  7  8  1  1
  7  9  1  0
  9 10  1  0
 10 11  1  0
 11 12  1  0
 12 13  1  0
 12 14  1  0
 14 15  1  0
 15 16  1  0
 16 17  1  0
 17 18  2  0
 16 19  1  0
 19 20  1  0
 19 21  1  0
 21 22  1  6
 21 23  1  0
 21 24  1  0
 24 25  1  0
 25 26  1  0
 27 26  1  1
 27 28  1  0
 29 28  1  6
 29 30  1  0
 30 31  1  1
 30 32  1  0
 32 33  1  0
 33 34  1  0
 33 35  1  0
 35 36  1  0
 36 37  1  0
 37 38  1  0
 38 39  1  0
 39 40  1  6
 39 41  1  0
 41 42  1  0
 42 43  1  0
 43 44  1  0
 44 45  1  0
 44 46  1  0
 46 47  1  0
 47 48  1  0
 48 49  1  0
 49 50  1  0
 46 51  1  0
 51 52  1  0
 52 53  1  0
 53 54  1  0
 54 55  1  0
 55 56  1  0
 54 57  1  0
 57 58  1  0
 58 59  1  1
 58 60  1  0
 60 61  1  0
 61 62  1  0
 29 27  1  0
M  RAD  8   9   2  12   2  14   2  17   2  22   2  42   2  45   3  46   2
M  CHG  2  17   1  18  -1
M  RAD  7  50   3  53   2  54   2  56   3  57   2  59   3  61   2
M  END
$$$$
