
     RDKit          3D

 25 24  0  0  0  0  0  0  0  0999 V2000
    7.2947   -0.1730   -0.7274 C   0  0  0  0  0  0  0  0  0  0  0  0
    6.0260   -0.3844    0.0951 C   0  0  0  0  0  3  0  0  0  0  0  0
    4.9492    0.5150   -0.5219 C   0  0  0  0  0  0  0  0  0  0  0  0
    3.6434    0.3903    0.2199 C   0  0  2  0  0  0  0  0  0  0  0  0
    3.7553    0.7472    1.5496 O   0  0  0  0  0  0  0  0  0  0  0  0
    3.0589   -0.9905    0.0214 C   0  0  2  0  0  0  0  0  0  0  0  0
    2.9960   -1.2283   -1.3519 O   0  0  0  0  0  0  0  0  0  0  0  0
    1.6583   -1.0425    0.6020 C   0  0  1  0  0  0  0  0  0  0  0  0
    1.7726   -0.8037    1.9771 O   0  0  0  0  0  0  0  0  0  0  0  0
    0.8949   -0.0070    0.0594 O   0  0  0  0  0  0  0  0  0  0  0  0
   -0.3377   -0.0016    0.6533 C   0  0  2  0  0  0  0  0  0  0  0  0
   -1.1448   -1.2392    0.4946 C   0  0  0  0  0  3  0  0  0  0  0  0
   -1.8142   -1.3902   -0.8485 C   0  0  0  0  0  0  0  0  0  0  0  0
   -2.5910   -2.6948   -0.8183 C   0  0  0  0  0  0  0  0  0  0  0  0
   -1.7100   -3.7624   -0.5837 O   0  0  0  0  0  0  0  0  0  0  0  0
   -3.5981   -2.6522    0.2441 N   0  0  0  0  0  0  0  0  0  0  0  0
   -4.2233   -3.8595    0.2347 O   0  0  0  0  0  0  0  0  0  0  0  0
   -4.5346   -1.5989   -0.0450 C   0  0  0  0  0  2  0  0  0  0  0  0
   -1.1012    1.2634    0.4919 C   0  0  0  0  0  0  0  0  0  0  0  0
   -1.3357    1.5676   -0.8663 O   0  0  0  0  0  0  0  0  0  0  0  0
   -2.0601    2.7818   -0.8174 C   0  0  2  0  0  0  0  0  0  0  0  0
   -1.1903    3.6812   -0.1593 O   0  0  0  0  0  0  0  0  0  0  0  0
   -3.1842    2.5123    0.1918 C   0  0  0  0  0  3  0  0  0  0  0  0
   -3.9872    3.6606    0.3219 O   0  0  0  0  0  0  0  0  0  0  0  0
   -3.2369    4.7091    0.6515 O   0  0  0  0  0  0  0  0  0  0  0  0
  1  2  1  0
  2  3  1  0
  3  4  1  0
  4  5  1  1
  4  6  1  0
  6  7  1  6
  6  8  1  0
  8  9  1  1
  8 10  1  0
 10 11  1  0
 11 12  1  6
 12 13  1  0
 13 14  1  0
 14 15  1  0
 14 16  1  0
 16 17  1  0
 16 18  1  0
 11 19  1  0
 19 20  1  0
 20 21  1  0
 21 22  1  1
 21 23  1  0
 23 24  1  0
 24 25  1  0
M  RAD  4   2   2  12   2  18   3  23   2
M  END
$$$$
