
     RDKit          3D

 20 21  0  0  0  0  0  0  0  0999 V2000
    4.6502    0.7128   -0.4636 O   0  0  0  0  0  0  0  0  0  0  0  0
    5.4504   -0.2742   -1.0381 C   0  0  0  0  0  0  0  0  0  0  0  0
    6.5320   -0.3806   -0.1695 O   0  0  0  0  0  0  0  0  0  0  0  0
    5.9894   -0.2170    1.1114 C   0  0  0  0  0  0  0  0  0  0  0  0
    4.5641    0.2594    0.8629 C   0  0  2  0  0  0  0  0  0  0  0  0
    3.4493   -1.1779    0.9547 S   0  0  0  0  0  0  0  0  0  0  0  0
    1.7840   -0.6504    0.5549 C   0  0  0  0  0  0  0  0  0  0  0  0
    1.3385   -0.7450   -0.6770 C   0  0  0  0  0  0  0  0  0  0  0  0
    0.0768   -0.3542   -1.0212 O   0  0  0  0  0  0  0  0  0  0  0  0
   -1.0596   -0.4582   -0.2737 C   0  0  0  0  0  0  0  0  0  0  0  0
   -1.7867    0.5254    0.1535 C   0  0  0  0  0  0  0  0  0  0  0  0
   -1.3542    2.2450   -0.2128 P   0  0  0  0  0  0  0  0  0  0  0  0
   -2.5367    3.3081    0.7530 C   0  0  0  0  0  0  0  0  0  0  0  0
   -3.8393    2.6555    1.0390 C   0  0  0  0  0  0  0  0  0  0  0  0
   -4.0367    1.2860    0.4942 C   0  0  0  0  0  0  0  0  0  0  0  0
   -2.9928    0.3012    0.9514 C   0  0  0  0  0  0  0  0  0  0  0  0
   -3.4504   -1.1033    1.0494 C   0  0  0  0  0  3  0  0  0  0  0  0
   -3.7866   -1.7521   -0.2479 C   0  0  1  0  0  0  0  0  0  0  0  0
   -4.1140   -3.0898    0.0202 O   0  0  0  0  0  0  0  0  0  0  0  0
   -4.8777   -1.0907   -1.0204 C   0  0  0  0  0  0  0  0  0  0  0  0
  1  2  1  0
  2  3  1  0
  3  4  1  0
  4  5  1  0
  5  6  1  6
  6  7  1  0
  7  8  2  3
  8  9  1  0
  9 10  1  0
 10 11  2  3
 11 12  1  0
 12 13  1  0
 13 14  1  0
 14 15  1  0
 15 16  1  0
 16 17  1  0
 17 18  1  0
 18 19  1  0
 18 20  1  1
  5  1  1  0
 16 11  1  0
M  RAD  1  17   2
M  END
$$$$
