
     RDKit          3D

 24 24  0  0  0  0  0  0  0  0999 V2000
   -2.0264    0.5016    1.2791 C   0  0  0  0  0  0  0  0  0  0  0  0
   -2.7584   -0.8323    0.9946 C   0  0  1  0  0  0  0  0  0  0  0  0
   -4.1430   -0.6820    1.5373 C   0  0  0  0  0  0  0  0  0  0  0  0
   -4.9215    0.3638    0.7927 C   0  0  2  0  0  0  0  0  0  0  0  0
   -6.1505    0.6419    1.3567 O   0  0  0  0  0  0  0  0  0  0  0  0
   -5.0657   -0.1203   -0.6525 C   0  0  2  0  0  0  0  0  0  0  0  0
   -5.2856   -1.5107   -0.5538 O   0  0  0  0  0  0  0  0  0  0  0  0
   -3.6356    0.0253   -1.2394 C   0  0  1  0  0  0  0  0  0  0  0  0
   -3.1839    1.2949   -0.7593 O   0  0  0  0  0  0  0  0  0  0  0  0
   -2.7987   -1.0151   -0.5280 C   0  0  1  0  0  0  0  0  0  0  0  0
   -1.4603   -1.0855   -1.0154 N   0  0  0  0  0  0  0  0  0  0  0  0
   -0.7672    0.1962   -0.7128 C   0  0  0  0  0  3  0  0  0  0  0  0
    0.8293   -0.2260   -0.8576 C   0  0  0  0  0  0  0  0  0  0  0  0
    0.8297   -1.3580    0.2760 C   0  0  0  0  0  0  0  0  0  0  0  0
    1.5217    0.7736   -0.3890 O   0  0  0  0  0  0  0  0  0  0  0  0
    2.0408    1.3379    0.6994 C   0  0  0  0  0  0  0  0  0  0  0  0
    3.4408    0.5772    0.7938 O   0  0  0  0  0  0  0  0  0  0  0  0
    3.6654    1.2659   -0.5471 O   0  0  0  0  0  0  0  0  0  0  0  0
    4.6762    0.5351   -1.0778 C   0  0  2  0  0  0  0  0  0  0  0  0
    4.0893    0.2438   -2.3291 O   0  0  0  0  0  0  0  0  0  0  0  0
    5.2619   -0.5723   -0.3660 C   0  0  2  0  0  0  0  0  0  0  0  0
    4.2148   -1.5545   -0.0162 O   0  0  0  0  0  0  0  0  0  0  0  0
    5.5701   -0.0490    1.1492 C   0  0  0  0  0  3  0  0  0  0  0  0
    6.0567    1.2485    0.9531 O   0  0  0  0  0  0  0  0  0  0  0  0
  2  1  1  6
  2  3  1  0
  3  4  1  0
  4  5  1  1
  4  6  1  0
  6  7  1  1
  6  8  1  0
  8  9  1  1
  8 10  1  0
 10 11  1  6
 11 12  1  0
 12 13  1  0
 13 14  1  0
 13 15  1  0
 15 16  1  0
 16 17  1  0
 17 18  1  0
 18 19  1  0
 19 20  1  6
 19 21  1  0
 21 22  1  1
 21 23  1  0
 23 24  1  0
 10  2  1  0
M  RAD  2  12   2  23   2
M  END
$$$$
