
     RDKit          3D

 11 11  0  0  0  0  0  0  0  0999 V2000
    3.3113   -0.3133    0.1425 O   0  0  0  0  0  0  0  0  0  0  0  0
    2.3725   -0.8454   -0.7177 C   0  0  0  0  0  0  0  0  0  0  0  0
    0.9672   -0.7903   -0.1812 C   0  0  2  0  0  0  0  0  0  0  0  0
    0.0940   -1.3779   -1.1799 N   0  0  0  0  0  0  0  0  0  0  0  0
   -1.2826   -1.4364   -0.7572 C   0  0  0  0  0  0  0  0  0  0  0  0
   -1.7059   -0.1891    0.0063 C   0  0  2  0  0  0  0  0  0  0  0  0
   -3.0127    0.1530   -0.3797 O   0  0  0  0  0  0  0  0  0  0  0  0
   -0.8154    0.9397   -0.5028 C   0  0  1  0  0  0  0  0  0  0  0  0
   -1.2043    2.1707    0.0117 O   0  0  0  0  0  0  0  0  0  0  0  0
    0.5902    0.6558   -0.0107 C   0  0  1  0  0  0  0  0  0  0  0  0
    0.6856    1.0332    1.3370 O   0  0  0  0  0  0  0  0  0  0  0  0
  1  2  1  0
  3  2  1  6
  3  4  1  0
  4  5  1  0
  5  6  1  0
  6  7  1  6
  6  8  1  0
  8  9  1  1
  8 10  1  0
 10 11  1  1
 10  3  1  0
M  END
$$$$
