
     RDKit          3D

 30 31  0  0  0  0  0  0  0  0999 V2000
    7.7392   -1.5355   -1.0455 C   0  0  0  0  0  0  0  0  0  0  0  0
    6.7491   -2.5890   -0.5379 C   0  0  0  0  0  0  0  0  0  0  0  0
    5.2761   -1.8333    0.2177 S   0  0  0  0  0  0  0  0  0  0  0  0
    5.5411   -1.1993    1.8342 C   0  0  0  0  0  0  0  0  0  0  0  0
    6.4745   -1.4309    2.5937 O   0  0  0  0  0  0  0  0  0  0  0  0
    4.5053   -0.2440    2.4159 C   0  0  0  0  0  0  0  0  0  0  0  0
    2.9013   -0.9668    1.9485 S   0  0  0  0  0  0  0  0  0  0  0  0
    1.5328    0.0564    2.6357 C   0  0  0  0  0  0  0  0  0  0  0  0
    1.6087    1.4684    1.9938 C   0  0  0  0  0  3  0  0  0  0  0  0
    0.5657    1.6843    0.6031 S   0  0  0  0  0  0  0  0  0  0  0  0
   -0.4541    0.2509    0.2640 N   0  0  0  0  0  0  0  0  0  0  0  0
    0.0068   -0.8806    1.0852 C   0  0  0  0  0  0  0  0  0  0  0  0
   -1.3789   -0.8751    2.1431 C   0  0  0  0  0  0  0  0  0  0  0  0
   -1.2280   -2.4573    2.4415 C   0  0  0  0  0  0  0  0  0  0  0  0
   -2.2730   -0.5587    1.3138 C   0  0  0  0  0  0  0  0  0  0  0  0
   -2.9977   -0.3202    0.6538 C   0  0  0  0  0  0  0  0  0  0  0  0
   -4.1146    0.0750   -0.3791 C   0  0  0  0  0  0  0  0  0  0  0  0
   -3.3669   -0.3677   -1.7426 C   0  0  0  0  0  0  0  0  0  0  0  0
   -2.7123    0.9383   -2.1908 C   0  0  0  0  0  0  0  0  0  0  0  0
   -3.3490    1.8557   -2.8222 C   0  0  0  0  0  0  0  0  0  0  0  0
   -2.4865    3.3876   -3.3225 S   0  0  0  0  0  0  0  0  0  0  0  0
   -0.8999    3.2562   -2.8034 C   0  0  0  0  0  0  0  0  0  0  0  0
   -0.6306    2.1065   -2.1782 N   0  0  0  0  0  0  0  0  0  0  0  0
   -1.2358    1.0657   -1.8496 C   0  0  0  0  0  0  0  0  0  0  0  0
   -0.5114   -0.0459   -1.1626 C   0  0  0  0  0  0  0  0  0  0  0  0
    0.9630   -0.0238   -1.6816 C   0  0  0  0  0  0  0  0  0  0  0  0
    0.9858   -0.3553   -3.1115 C   0  0  0  0  0  0  0  0  0  0  0  0
   -4.9838   -1.2449   -0.1573 C   0  0  0  0  0  0  0  0  0  0  0  0
   -5.4516   -1.2295    1.2610 C   0  0  0  0  0  0  0  0  0  0  0  0
   -6.7754    0.1634    1.5799 Br  0  0  0  0  0  0  0  0  0  0  0  0
  1  2  1  0
  2  3  1  0
  3  4  1  0
  4  5  2  0
  4  6  1  0
  6  7  1  0
  7  8  1  0
  8  9  1  0
  9 10  1  0
 10 11  1  0
 11 12  1  0
 12 13  1  0
 13 14  1  0
 13 15  1  0
 15 16  3  0
 16 17  1  0
 17 18  1  0
 18 19  1  0
 19 20  2  0
 20 21  1  0
 21 22  2  0
 22 23  1  0
 23 24  2  0
 24 25  1  0
 25 26  1  0
 26 27  1  0
 17 28  1  0
 28 29  1  0
 29 30  1  0
 25 11  1  0
 24 19  1  0
M  RAD  1   9   2
M  END
$$$$
