
     RDKit          3D

 29 30  0  0  0  0  0  0  0  0999 V2000
    6.3241    3.2341    0.2956 O   0  0  0  0  0  0  0  0  0  0  0  0
    5.4313    3.8920   -0.2857 C   0  0  0  0  0  0  0  0  0  0  0  0
    5.5678    5.2598   -0.4429 O   0  0  0  0  0  0  0  0  0  0  0  0
    4.2147    3.2375   -0.8180 C   0  0  0  0  0  0  0  0  0  0  0  0
    4.2138    1.7540   -0.5699 C   0  0  0  0  0  0  0  0  0  0  0  0
    4.2750    1.4276    0.9074 C   0  0  0  0  0  0  0  0  0  0  0  0
    4.2693   -0.0706    1.0468 C   0  0  0  0  0  0  0  0  0  0  0  0
    2.9985   -0.6237    0.4348 C   0  0  0  0  0  0  0  0  0  0  0  0
    2.9402   -2.1236    0.5469 C   0  0  0  0  0  0  0  0  0  0  0  0
    1.6457   -2.5908   -0.0857 C   0  0  2  0  0  0  0  0  0  0  0  0
    0.5123   -1.9297    0.6896 C   0  0  1  0  0  0  0  0  0  0  0  0
   -0.7725   -2.2427   -0.0868 C   0  0  0  0  0  0  0  0  0  0  0  0
   -1.8950   -1.5830    0.6888 C   0  0  0  0  0  0  0  0  0  0  0  0
   -3.2352   -1.8231    0.0136 C   0  0  1  0  0  0  0  0  0  0  0  0
   -4.2129   -1.2102    0.7486 O   0  0  0  0  0  0  0  0  0  0  0  0
   -3.1595   -1.3181   -1.3696 C   0  0  0  0  0  0  0  0  0  0  0  0
   -2.8666   -0.0050   -1.4936 O   0  0  0  0  0  0  0  0  0  0  0  0
   -3.5783    1.0780   -1.0753 C   0  0  0  0  0  0  0  0  0  0  0  0
   -3.0727    2.3830   -1.2977 C   0  0  0  0  0  0  0  0  0  0  0  0
   -3.7838    3.4808   -0.8827 C   0  0  0  0  0  0  0  0  0  0  0  0
   -5.0005    3.3575   -0.2423 C   0  0  0  0  0  0  0  0  0  0  0  0
   -5.5169    2.0942   -0.0127 C   0  0  0  0  0  0  0  0  0  0  0  0
   -7.0551    1.8551    0.7940 Cl  0  0  0  0  0  0  0  0  0  0  0  0
   -4.7789    1.0255   -0.4410 C   0  0  0  0  0  0  0  0  0  0  0  0
    0.4596   -2.8467    1.9181 C   0  0  2  0  0  0  0  0  0  0  0  0
    1.6226   -2.7569    2.6626 O   0  0  0  0  0  0  0  0  0  0  0  0
    0.4094   -4.2019    1.2423 C   0  0  0  0  0  0  0  0  0  0  0  0
    1.4353   -4.0765    0.1605 C   0  0  2  0  0  0  0  0  0  0  0  0
    2.6082   -4.6765    0.5692 O   0  0  0  0  0  0  0  0  0  0  0  0
  1  2  2  0
  2  3  1  0
  2  4  1  0
  4  5  1  0
  5  6  1  0
  6  7  1  0
  7  8  1  0
  8  9  1  0
 10  9  1  1
 10 11  1  0
 11 12  1  6
 12 13  1  0
 13 14  1  0
 14 15  1  1
 14 16  1  0
 16 17  1  0
 17 18  1  0
 18 19  2  0
 19 20  1  0
 20 21  2  0
 21 22  1  0
 22 23  1  0
 22 24  2  0
 11 25  1  0
 25 26  1  1
 25 27  1  0
 27 28  1  0
 28 29  1  1
 28 10  1  0
 24 18  1  0
M  END
$$$$
