
     RDKit          3D

 32 34  0  0  0  0  0  0  0  0999 V2000
   -1.6262    2.3783    0.4411 C   0  0  0  0  0  0  0  0  0  0  0  0
   -2.9345    1.7144    0.7180 C   0  0  0  0  0  0  0  0  0  0  0  0
   -3.5488    2.1791    2.0284 C   0  0  0  0  0  0  0  0  0  0  0  0
   -3.9137    1.8354   -0.4254 C   0  0  0  0  0  0  0  0  0  0  0  0
   -4.9917    0.7865   -0.1948 C   0  0  0  0  0  0  0  0  0  0  0  0
   -4.5666   -0.5537   -0.7895 C   0  0  0  0  0  0  0  0  0  0  0  0
   -4.9273   -1.6990    0.1330 C   0  0  1  0  0  0  0  0  0  0  0  0
   -5.9258   -2.6391   -0.5045 C   0  0  0  0  0  0  0  0  0  0  0  0
   -3.7144   -2.4283    0.6507 C   0  0  0  0  0  3  0  0  0  0  0  0
   -2.6477   -2.6123   -0.3979 C   0  0  0  0  0  0  0  0  0  0  0  0
   -1.7731   -1.3886   -0.5559 C   0  0  0  0  0  0  0  0  0  0  0  0
   -0.9660   -1.1043    0.6937 C   0  0  1  0  0  0  0  0  0  0  0  0
   -0.0680    0.0423    0.4256 C   0  0  0  0  0  0  0  0  0  0  0  0
   -1.8492   -0.7615    1.8763 C   0  0  0  0  0  0  0  0  0  0  0  0
   -0.1622   -2.3055    1.1082 C   0  0  0  0  0  0  0  0  0  0  0  0
    1.0008   -2.6104    0.5420 C   0  0  0  0  0  0  0  0  0  0  0  0
    1.5112   -1.7235   -0.5370 C   0  0  0  0  0  0  0  0  0  0  0  0
    2.6817   -2.4333   -1.1851 C   0  0  0  0  0  0  0  0  0  0  0  0
    3.8054   -2.4698   -0.1748 C   0  0  0  0  0  0  0  0  0  0  0  0
    3.3123   -2.0877    1.2018 C   0  0  0  0  0  0  0  0  0  0  0  0
    4.9207   -1.5363   -0.5652 C   0  0  0  0  0  0  0  0  0  0  0  0
    4.3946   -0.1846   -1.0374 C   0  0  0  0  0  0  0  0  0  0  0  0
    4.5095    0.8599    0.0582 C   0  0  0  0  0  0  0  0  0  0  0  0
    5.3618    0.3687    1.2106 C   0  0  0  0  0  0  0  0  0  0  0  0
    5.0478    2.0575   -0.4497 O   0  0  0  0  0  0  0  0  0  0  0  0
    4.0743    3.0719   -0.4198 C   0  0  0  0  0  0  0  0  0  0  0  0
    2.8576    2.6572   -1.2416 C   0  0  0  0  0  0  0  0  0  0  0  0
    2.0024    1.6566   -0.4839 C   0  0  0  0  0  0  0  0  0  0  0  0
    1.2854    2.3585    0.6509 C   0  0  0  0  0  0  0  0  0  0  0  0
   -0.5964    1.1938   -0.5331 S   0  0  0  0  0  0  0  0  0  0  0  0
   -0.9194    2.2629   -1.4340 C   0  0  0  0  0  0  0  0  0  0  0  0
   -1.6344    3.1150   -0.8089 C   0  0  0  0  0  0  0  0  0  0  0  0
  1  2  1  0
  2  3  1  0
  2  4  1  0
  4  5  1  0
  5  6  1  0
  6  7  1  0
  7  8  1  6
  7  9  1  0
  9 10  1  0
 10 11  1  0
 11 12  1  0
 12 13  1  0
 12 14  1  1
 12 15  1  0
 15 16  2  3
 16 17  1  0
 17 18  1  0
 18 19  1  0
 19 20  1  0
 19 21  1  0
 21 22  1  0
 22 23  1  0
 23 24  1  0
 23 25  1  0
 25 26  1  0
 26 27  1  0
 27 28  1  0
 28 29  1  0
 29 30  1  0
 30 31  1  0
 31 32  2  0
 30  1  1  0
 32  1  1  0
 30 13  1  0
M  RAD  1   9   2
M  END
$$$$
