
     RDKit          3D

 38 41  0  0  0  0  0  0  0  0999 V2000
    1.8987    0.7495    0.1711 C   0  0  0  0  0  0  0  0  0  0  0  0
    1.8397   -0.7730    0.3017 C   0  0  2  0  0  0  0  0  0  0  0  0
    2.9453   -1.0343    1.3395 C   0  0  0  0  0  0  0  0  0  0  0  0
    3.5281    0.2185    1.9403 C   0  0  1  0  0  0  0  0  0  0  0  0
    4.7116   -0.1648    2.5809 O   0  0  0  0  0  0  0  0  0  0  0  0
    3.9752    1.1772    0.9791 O   0  0  0  0  0  0  0  0  0  0  0  0
    3.4371    0.6794   -0.0919 C   0  0  2  0  0  0  0  0  0  0  0  0
    3.5173    0.9963   -1.4771 C   0  0  0  0  0  0  0  0  0  0  0  0
    2.5877   -0.1021   -2.0562 C   0  0  0  0  0  3  0  0  0  0  0  0
    2.2870   -1.2054   -1.1052 C   0  0  1  0  0  0  0  0  0  0  0  0
    3.4008   -2.1675   -0.8708 C   0  0  0  0  0  3  0  0  0  0  0  0
    2.8598   -3.4157   -0.3531 C   0  0  0  0  0  0  0  0  0  0  0  0
    1.6132   -3.8643   -0.5080 C   0  0  0  0  0  0  0  0  0  0  0  0
    1.1642   -4.9796   -0.0739 O   0  0  0  0  0  0  0  0  0  0  0  0
    0.7166   -2.9460   -1.3290 C   0  0  0  0  0  3  0  0  0  0  0  0
   -0.5030   -2.7426   -0.6403 O   0  0  0  0  0  0  0  0  0  0  0  0
   -1.4680   -2.2148   -1.4644 C   0  0  0  0  0  0  0  0  0  0  0  0
   -1.6383   -0.7916   -1.3546 O   0  0  0  0  0  0  0  0  0  0  0  0
   -2.4693   -0.6890   -0.2108 C   0  0  2  0  0  0  0  0  0  0  0  0
   -3.7476   -1.1661   -0.7554 O   0  0  0  0  0  0  0  0  0  0  0  0
   -4.1518   -2.2091    0.1102 C   0  0  0  0  0  3  0  0  0  0  0  0
   -5.3854   -2.8337   -0.5527 C   0  0  0  0  0  3  0  0  0  0  0  0
   -6.1305   -3.3118    0.5553 O   0  0  0  0  0  0  0  0  0  0  0  0
   -2.7154    0.8038    0.1004 C   0  0  1  0  0  0  0  0  0  0  0  0
   -2.8616    0.9789    1.4483 O   0  0  0  0  0  0  0  0  0  0  0  0
   -3.9783    0.1523    1.7514 C   0  0  0  0  0  3  0  0  0  0  0  0
   -4.5406    0.4848    3.0717 C   0  0  0  0  0  2  0  0  0  0  0  0
   -1.5261    1.6919   -0.3343 C   0  0  2  0  0  0  0  0  0  0  0  0
   -0.7237    0.8951   -1.1927 O   0  0  0  0  0  0  0  0  0  0  0  0
   -0.6160    1.6651   -2.3786 C   0  0  0  0  0  2  0  0  0  0  0  0
   -0.7140    2.1007    0.9149 C   0  0  1  0  0  0  0  0  0  0  0  0
    0.0435    1.0753    1.6282 C   0  0  0  0  0  3  0  0  0  0  0  0
    1.5457    1.4012    1.4424 C   0  0  0  0  0  3  0  0  0  0  0  0
    0.0689    3.3506    0.7195 C   0  0  1  0  0  0  0  0  0  0  0  0
    0.8578    3.3418   -0.5873 C   0  0  0  0  0  3  0  0  0  0  0  0
   -0.5519    4.5034    0.3822 O   0  0  0  0  0  0  0  0  0  0  0  0
    0.5551    4.8173   -0.4238 C   0  0  2  0  0  0  0  0  0  0  0  0
    0.1681    5.5288   -1.6771 C   0  0  0  0  0  2  0  0  0  0  0  0
  1  2  1  0
  2  3  1  1
  3  4  1  0
  4  5  1  1
  4  6  1  0
  6  7  1  0
  7  8  1  6
  8  9  1  0
 10  9  1  6
 10 11  1  0
 11 12  1  0
 12 13  2  3
 13 14  1  0
 13 15  1  0
 15 16  1  0
 16 17  1  0
 17 18  1  0
 18 19  1  0
 19 20  1  6
 20 21  1  0
 21 22  1  0
 22 23  1  0
 19 24  1  0
 24 25  1  1
 25 26  1  0
 26 27  1  0
 24 28  1  0
 28 29  1  6
 29 30  1  0
 28 31  1  0
 31 32  1  6
 32 33  1  0
 31 34  1  0
 34 35  1  6
 34 36  1  0
 36 37  1  0
 37 38  1  6
  7  1  1  0
 33  1  1  0
 10  2  1  0
 37 35  1  0
M  RAD  8   9   2  11   2  15   2  21   2  22   2  26   2  27   3  30   3
M  RAD  4  32   2  33   2  35   2  38   3
M  END
$$$$
