
     RDKit          3D

 38 40  0  0  0  0  0  0  0  0999 V2000
    5.5463   -0.2022    2.3858 O   0  0  0  0  0  0  0  0  0  0  0  0
    6.1264    0.2885    1.4058 C   0  0  0  0  0  0  0  0  0  0  0  0
    6.1695    1.6893    1.2709 O   0  0  0  0  0  0  0  0  0  0  0  0
    6.7814   -0.5210    0.3612 C   0  0  0  0  0  0  0  0  0  0  0  0
    5.8879   -0.8513   -0.7856 C   0  0  0  0  0  0  0  0  0  0  0  0
    4.7155   -1.6229   -0.3356 C   0  0  0  0  0  0  0  0  0  0  0  0
    4.3450   -2.8504   -0.6795 C   0  0  0  0  0  0  0  0  0  0  0  0
    3.1249   -3.2480   -0.0120 C   0  0  0  0  0  0  0  0  0  0  0  0
    2.4279   -4.4514   -0.1115 O   0  0  0  0  0  0  0  0  0  0  0  0
    2.7541   -2.2354    0.7490 C   0  0  0  0  0  0  0  0  0  0  0  0
    3.6997   -1.1309    0.6221 C   0  0  0  0  0  0  0  0  0  0  0  0
    3.0702    0.0752    0.0145 C   0  0  0  0  0  0  0  0  0  0  0  0
    1.7478    0.0401   -0.2078 C   0  0  0  0  0  0  0  0  0  0  0  0
    1.1510    1.2099   -0.7945 C   0  0  0  0  0  0  0  0  0  0  0  0
   -0.1461    1.2784   -1.0538 C   0  0  0  0  0  0  0  0  0  0  0  0
   -0.8111    2.4325   -1.6460 C   0  0  0  0  0  0  0  0  0  0  0  0
   -1.2151    2.4862   -2.9389 C   0  0  0  0  0  0  0  0  0  0  0  0
   -1.8755    3.7991   -3.2549 C   0  0  0  0  0  0  0  0  0  0  0  0
   -2.7804    4.2377   -2.3399 C   0  0  0  0  0  0  0  0  0  0  0  0
   -2.9799    3.3519   -1.1635 C   0  0  0  0  0  0  0  0  0  0  0  0
   -3.3336    4.0762    0.0826 C   0  0  0  0  0  0  0  0  0  0  0  0
   -2.1852    5.0419    0.3977 C   0  0  0  0  0  0  0  0  0  0  0  0
   -2.4521    5.8097    1.6280 C   0  0  0  0  0  0  0  0  0  0  0  0
   -2.5053    7.1455    1.5196 C   0  0  0  0  0  0  0  0  0  0  0  0
   -3.6650    2.1145   -1.4096 C   0  0  0  0  0  0  0  0  0  0  0  0
   -3.2862    0.9408   -1.2420 C   0  0  0  0  0  0  0  0  0  0  0  0
   -2.2812    0.1048   -0.8367 C   0  0  0  0  0  0  0  0  0  0  0  0
   -1.0051    0.1044   -0.7102 C   0  0  0  0  0  0  0  0  0  0  0  0
   -0.3048   -1.0926   -0.2114 C   0  0  0  0  0  0  0  0  0  0  0  0
   -1.1717   -2.2387    0.0942 C   0  0  0  0  0  0  0  0  0  0  0  0
   -2.4808   -2.1285   -0.0926 C   0  0  0  0  0  0  0  0  0  0  0  0
   -3.3057   -3.3290    0.2366 C   0  0  0  0  0  0  0  0  0  0  0  0
   -4.5910   -3.4125   -0.5917 C   0  0  0  0  0  0  0  0  0  0  0  0
   -2.5540   -4.5793    0.3139 C   0  0  0  0  0  0  0  0  0  0  0  0
   -2.7417   -4.6541    1.6034 C   0  0  0  0  0  0  0  0  0  0  0  0
   -3.5125   -3.4267    1.7092 C   0  0  0  0  0  0  0  0  0  0  0  0
   -2.9297   -2.3189    2.4905 C   0  0  0  0  0  0  0  0  0  0  0  0
   -3.4340   -1.9331    3.5327 O   0  0  0  0  0  0  0  0  0  0  0  0
  1  2  2  0
  2  3  1  0
  2  4  1  0
  4  5  1  0
  5  6  1  0
  6  7  2  0
  7  8  1  0
  8  9  1  0
  8 10  2  0
 10 11  1  0
 11 12  1  0
 12 13  2  3
 13 14  1  0
 14 15  2  3
 15 16  1  0
 16 17  2  3
 17 18  1  0
 18 19  2  3
 19 20  1  0
 20 21  1  0
 21 22  1  0
 22 23  1  0
 23 24  2  0
 20 25  1  0
 25 26  2  3
 26 27  1  0
 27 28  2  3
 28 29  1  0
 29 30  1  0
 30 31  2  3
 31 32  1  0
 32 33  1  0
 32 34  1  0
 34 35  2  0
 35 36  1  0
 36 37  1  0
 37 38  2  0
 11  6  1  0
 28 15  1  0
 36 32  1  0
M  END
$$$$
