
     RDKit          3D

 30 31  0  0  0  0  0  0  0  0999 V2000
   10.6183    1.4520    0.2655 Cl  0  0  0  0  0  0  0  0  0  0  0  0
    9.6569   -0.0230    0.2361 N   0  0  0  0  0  0  0  0  0  0  0  0
    8.3262    0.2669   -0.9068 S   0  0  0  0  0  0  0  0  0  0  0  0
    6.7600    0.0595   -0.1539 N   0  0  0  0  0  0  0  0  0  0  0  0
    6.1897    1.6194    0.4985 S   0  0  0  0  0  0  0  0  0  0  0  0
    4.3425    1.7268    0.3626 C   0  0  0  0  0  0  0  0  0  0  0  0
    4.0245    1.8180   -1.0263 O   0  0  0  0  0  0  0  0  0  0  0  0
    4.5861    0.6115   -1.5408 C   0  0  0  0  0  0  0  0  0  0  0  0
    3.5927   -0.8265   -1.0108 S   0  0  0  0  0  0  0  0  0  0  0  0
    3.1476   -0.7849    0.6525 O   0  0  0  0  0  0  0  0  0  0  0  0
    1.3673   -0.8326    0.7007 P   0  0  0  0  0  0  0  0  0  0  0  0
    0.9452   -2.5690    0.0287 C   0  0  0  0  0  0  0  0  0  0  0  0
    0.1133   -2.2581   -1.2422 C   0  0  0  0  0  0  0  0  0  0  0  0
   -1.0760   -2.4116   -1.2948 C   0  0  0  0  0  0  0  0  0  0  0  0
   -2.3904   -2.7691   -0.8141 C   0  0  0  0  0  0  0  0  0  0  0  0
   -3.0654   -2.9302    0.6003 S   0  0  0  0  0  0  0  0  0  0  0  0
   -3.5812   -3.0454    1.7062 C   0  0  0  0  0  0  0  0  0  0  0  0
   -3.9454   -3.1352    2.4850 N   0  0  0  0  0  0  0  0  0  0  0  0
   -4.7611   -1.5287    1.5610 C   0  0  0  0  0  0  0  0  0  0  0  0
   -4.0671   -0.9892    0.6053 C   0  0  0  0  0  0  0  0  0  0  0  0
   -4.8404    0.1732    0.0581 C   0  0  0  0  0  0  0  0  0  0  0  0
   -5.3686    1.0409   -0.3795 C   0  0  0  0  0  0  0  0  0  0  0  0
   -7.0308    1.6871    0.0038 S   0  0  0  0  0  0  0  0  0  0  0  0
   -6.8813    3.6832   -0.1044 S   0  0  0  0  0  0  0  0  0  0  0  0
   -5.8456    4.4356   -0.9656 N   0  0  0  0  0  0  0  0  0  0  0  0
   -5.9927    6.3067   -0.7444 S   0  0  0  0  0  0  0  0  0  0  0  0
    0.7600    0.4467   -0.4395 N   0  0  0  0  0  0  0  0  0  0  0  0
   -0.6162    0.0116   -1.3839 S   0  0  0  0  0  0  0  0  0  0  0  0
   -2.1434   -0.1982   -0.6171 C   0  0  0  0  0  0  0  0  0  0  0  0
   -2.8246   -1.0375   -0.3629 C   0  0  0  0  0  0  0  0  0  0  0  0
  1  2  1  0
  2  3  1  0
  3  4  1  0
  4  5  1  0
  5  6  1  0
  6  7  1  0
  7  8  1  0
  8  9  1  0
  9 10  1  0
 10 11  1  0
 11 12  1  0
 12 13  1  0
 13 14  2  3
 14 15  1  0
 15 16  1  0
 16 17  3  0
 17 18  1  0
 18 19  1  0
 19 20  2  0
 20 21  1  0
 21 22  2  3
 22 23  1  0
 23 24  1  0
 24 25  2  3
 25 26  1  0
 11 27  1  0
 27 28  1  0
 28 29  1  0
 29 30  2  3
 30 15  1  0
 30 20  1  0
M  END
$$$$
