
     RDKit          3D

 26 29  0  0  0  0  0  0  0  0999 V2000
    2.7326    0.6338    2.3940 O   0  0  0  0  0  0  0  0  0  0  0  0
    2.3067    0.2437    1.2448 C   0  0  0  0  0  0  0  0  0  0  0  0
    3.2888    0.2564    0.1728 C   0  0  0  0  0  0  0  0  0  0  0  0
    4.5962    0.6698    0.4087 C   0  0  0  0  0  0  0  0  0  0  0  0
    5.4989    0.6685   -0.6313 C   0  0  0  0  0  0  0  0  0  0  0  0
    5.1334    0.2668   -1.8979 C   0  0  0  0  0  0  0  0  0  0  0  0
    3.8268   -0.1345   -2.0844 C   0  0  0  0  0  0  0  0  0  0  0  0
    2.8982   -0.1491   -1.0812 C   0  0  0  0  0  0  0  0  0  0  0  0
    1.5572   -0.5533   -1.2406 N   0  0  0  0  0  0  0  0  0  0  0  0
    0.6577   -0.5820   -0.3299 C   0  0  0  0  0  0  0  0  0  0  0  0
   -0.6884   -1.0509   -0.7549 C   0  0  0  0  0  0  0  0  0  0  0  0
   -1.7949   -0.7456   -0.0000 C   0  0  0  0  0  0  0  0  0  0  0  0
   -3.0332   -1.1721   -0.3830 C   0  0  0  0  0  0  0  0  0  0  0  0
   -3.1522   -1.9151   -1.5422 C   0  0  0  0  0  0  0  0  0  0  0  0
   -4.3929   -2.3814   -1.9883 O   0  0  0  0  0  0  0  0  0  0  0  0
   -2.0584   -2.2289   -2.3075 C   0  0  0  0  0  0  0  0  0  0  0  0
   -0.8220   -1.7901   -1.9043 C   0  0  0  0  0  0  0  0  0  0  0  0
    0.9492   -0.1805    1.0205 C   0  0  0  0  0  0  0  0  0  0  0  0
   -0.1046    0.6494    1.6938 C   0  0  0  0  0  0  0  0  0  0  0  0
    0.0874    2.0903    1.2043 C   0  0  0  0  0  0  0  0  0  0  0  0
   -0.6969    2.3162    0.0609 O   0  0  0  0  0  0  0  0  0  0  0  0
   -1.8971    2.8938    0.5298 C   0  0  0  0  0  0  0  0  0  0  0  0
   -2.9806    1.8890    0.4351 C   0  0  0  0  0  0  0  0  0  0  0  0
   -3.2837    1.0651    1.4426 C   0  0  0  0  0  0  0  0  0  0  0  0
   -4.3762    0.1296    1.1993 C   0  0  0  0  0  0  0  0  0  0  0  0
   -4.2520   -0.8887    0.3639 C   0  0  0  0  0  0  0  0  0  0  0  0
  1  2  2  0
  2  3  1  0
  3  4  2  0
  4  5  1  0
  5  6  2  0
  6  7  1  0
  7  8  2  0
  8  9  1  0
  9 10  2  0
 10 11  1  0
 11 12  2  0
 12 13  1  0
 13 14  2  0
 14 15  1  0
 14 16  1  0
 16 17  2  0
 10 18  1  0
 18 19  1  0
 19 20  1  0
 20 21  1  0
 21 22  1  0
 22 23  1  0
 23 24  2  3
 24 25  1  0
 25 26  2  3
 18  2  1  0
  8  3  1  0
 17 11  1  0
 26 13  1  0
M  END
$$$$
