
     RDKit          3D

 11 10  0  0  0  0  0  0  0  0999 V2000
    3.0163   -0.3116   -0.3832 O   0  0  0  0  0  0  0  0  0  0  0  0
    2.7956   -0.5407    0.9745 C   0  0  0  0  0  0  0  0  0  0  0  0
    1.9905    0.5968    1.5259 C   0  0  0  0  0  3  0  0  0  0  0  0
    0.5784    0.4138    1.4616 N   0  0  0  0  0  0  0  0  0  0  0  0
    0.0927   -0.0692    0.1989 C   0  0  2  0  0  0  0  0  0  0  0  0
    0.3942    0.9380   -0.8990 C   0  0  0  0  0  0  0  0  0  0  0  0
   -0.0627    0.4949   -2.1174 O   0  0  0  0  0  0  0  0  0  0  0  0
   -1.3941   -0.2871    0.3297 C   0  0  1  0  0  0  0  0  0  0  0  0
   -2.0521    0.9125    0.6600 O   0  0  0  0  0  0  0  0  0  0  0  0
   -1.9973   -0.8420   -0.9423 C   0  0  0  0  0  3  0  0  0  0  0  0
   -3.3616   -1.0367   -0.8087 O   0  0  0  0  0  0  0  0  0  0  0  0
  1  2  1  0
  2  3  1  0
  3  4  1  0
  4  5  1  0
  5  6  1  6
  6  7  1  0
  5  8  1  0
  8  9  1  6
  8 10  1  0
 10 11  1  0
M  RAD  2   3   2  10   2
M  END
$$$$
