
     RDKit          3D

 20 20  0  0  0  0  0  0  0  0999 V2000
   -1.0644   -1.3220    0.6225 C   0  0  0  0  0  0  0  0  0  0  0  0
   -2.3426   -1.5292    0.0167 N   0  0  0  0  0  0  0  0  0  0  0  0
   -2.2808   -2.3074   -1.2001 C   0  0  0  0  0  0  0  0  0  0  0  0
   -3.3645   -2.0131    0.9290 C   0  0  0  0  0  0  0  0  0  0  0  0
   -4.5251   -1.0081    0.8388 C   0  0  0  0  0  0  0  0  0  0  0  0
   -4.0907    0.2277    0.1994 C   0  0  0  0  0  0  0  0  0  0  0  0
   -4.4499    1.4552    0.4992 C   0  0  0  0  0  0  0  0  0  0  0  0
   -3.8275    2.4719   -0.3369 N   0  0  0  0  0  0  0  0  0  0  0  0
   -2.4089    2.2308   -0.5323 C   0  0  0  0  0  0  0  0  0  0  0  0
   -2.0490    0.9771   -0.7268 C   0  0  0  0  0  0  0  0  0  0  0  0
   -0.6834    0.5674   -0.9350 C   0  0  0  0  0  0  0  0  0  0  0  0
   -0.2104   -0.5248   -0.2961 C   0  0  0  0  0  0  0  0  0  0  0  0
    1.2032   -0.9469   -0.5136 C   0  0  0  0  0  0  0  0  0  0  0  0
    1.8542   -0.9099    0.7768 N   0  0  0  0  0  0  0  0  0  0  0  0
    3.0955   -0.6942    0.8219 N   0  0  0  0  0  0  0  0  0  0  0  0
    3.7981   -0.5025   -0.3117 O   0  0  0  0  0  0  0  0  0  0  0  0
    5.1276   -0.2767   -0.4085 N   0  0  0  0  0  0  0  0  0  0  0  0
    5.7364    0.7226    0.0616 N   0  0  0  0  0  0  0  0  0  0  0  0
    5.0143    1.7118    0.7526 N   0  0  0  0  0  2  0  0  0  0  0  0
    5.4677    1.6702    2.1421 C   0  0  0  0  0  0  0  0  0  0  0  0
  1  2  1  0
  2  3  1  0
  2  4  1  0
  4  5  1  0
  5  6  1  0
  6  7  2  3
  7  8  1  0
  8  9  1  0
  9 10  2  3
 10 11  1  0
 11 12  2  3
 12 13  1  0
 13 14  1  0
 14 15  2  3
 15 16  1  0
 16 17  1  0
 17 18  2  3
 18 19  1  0
 19 20  1  0
 12  1  1  0
M  CHG  1  19   1
M  RAD  1  19   3
M  END
$$$$
