
     RDKit          3D

 48 50  0  0  0  0  0  0  0  0999 V2000
   -1.5566   -5.4899   -2.5533 C   0  0  0  0  0  0  0  0  0  0  0  0
   -2.5541   -4.3600   -2.4386 C   0  0  0  0  0  0  0  0  0  0  0  0
   -3.9298   -4.7674   -2.8815 C   0  0  0  0  0  0  0  0  0  0  0  0
   -2.5606   -3.7998   -1.0125 C   0  0  0  0  0  0  0  0  0  0  0  0
   -1.1737   -3.3034   -0.7371 C   0  0  0  0  0  0  0  0  0  0  0  0
   -0.9939   -2.7162    0.6252 C   0  0  0  0  0  0  0  0  0  0  0  0
   -1.8686   -1.5415    0.9101 C   0  0  1  0  0  0  0  0  0  0  0  0
   -1.6730   -0.3832   -0.0119 C   0  0  0  0  0  0  0  0  0  0  0  0
   -3.3118   -1.9642    1.0491 C   0  0  0  0  0  3  0  0  0  0  0  0
   -4.1008   -1.5169   -0.1355 C   0  0  0  0  0  0  0  0  0  0  0  0
   -5.3335   -0.7424    0.1933 C   0  0  0  0  0  0  0  0  0  0  0  0
   -5.4931   -0.4428    1.6477 C   0  0  0  0  0  0  0  0  0  0  0  0
   -4.2472    0.1266    2.2762 C   0  0  0  0  0  0  0  0  0  0  0  0
   -5.9479   -1.6934    2.3896 C   0  0  0  0  0  0  0  0  0  0  0  0
   -6.5963    0.5802    1.8137 C   0  0  0  0  0  0  0  0  0  0  0  0
   -7.0346    1.1038    0.4624 C   0  0  0  0  0  3  0  0  0  0  0  0
   -7.3235    2.5736    0.6234 C   0  0  0  0  0  0  0  0  0  0  0  0
   -7.1986    3.3300   -0.6634 C   0  0  0  0  0  0  0  0  0  0  0  0
   -5.7806    3.2528   -1.1528 C   0  0  0  0  0  0  0  0  0  0  0  0
   -5.7698    2.5647   -2.9498 Br  0  0  0  0  0  0  0  0  0  0  0  0
   -5.0164    2.5121   -0.2834 O   0  0  0  0  0  0  0  0  0  0  0  0
   -3.8470    3.1675    0.0988 C   0  0  0  0  0  0  0  0  0  0  0  0
   -2.6310    2.3756   -0.3726 C   0  0  0  0  0  0  0  0  0  0  0  0
   -2.9448    1.3263   -1.2043 O   0  0  0  0  0  0  0  0  0  0  0  0
   -1.3328    3.4472   -1.0820 S   0  0  0  0  0  0  0  0  0  0  0  0
   -0.8609    3.1828    0.5675 O   0  0  0  0  0  0  0  0  0  0  0  0
   -1.7119    2.0944    0.7706 C   0  0  0  0  0  0  0  0  0  0  0  0
   -1.0111    0.7849    0.6561 C   0  0  0  0  0  0  0  0  0  0  0  0
    0.2096    0.6848    1.1603 C   0  0  0  0  0  0  0  0  0  0  0  0
    0.8220    1.8579    1.8081 C   0  0  0  0  0  0  0  0  0  0  0  0
    0.9109   -0.5882    1.0673 C   0  0  0  0  0  0  0  0  0  0  0  0
    2.1724   -0.6506    0.3226 C   0  0  0  0  0  0  0  0  0  0  0  0
    3.4164    0.0716    0.5775 C   0  0  2  0  0  0  0  0  0  0  0  0
    3.5400    1.1134    1.6374 C   0  0  0  0  0  0  0  0  0  0  0  0
    4.9326    1.6730    1.6547 C   0  0  0  0  0  0  0  0  0  0  0  0
    2.5845    0.4035   -0.6480 C   0  0  0  0  0  0  0  0  0  0  0  0
    2.9796    0.1315   -1.8697 O   0  0  0  0  0  0  0  0  0  0  0  0
    3.9500   -0.6138   -2.3001 C   0  0  0  0  0  0  0  0  0  0  0  0
    5.3652   -0.4543   -2.0490 C   0  0  0  0  0  0  0  0  0  0  0  0
    5.8891   -0.5222   -0.6648 C   0  0  0  0  0  2  0  0  0  0  0  0
    6.8925   -1.6157   -0.4398 C   0  0  0  0  0  0  0  0  0  0  0  0
    7.0169   -1.9601    0.8989 O   0  0  0  0  0  0  0  0  0  0  0  0
    8.2366   -1.3191   -1.0395 C   0  0  0  0  0  0  0  0  0  0  0  0
    8.7756   -0.0559   -0.4148 C   0  0  0  0  0  0  0  0  0  0  0  0
    7.8018    1.0840   -0.7057 C   0  0  0  0  0  2  0  0  0  0  0  0
    8.8683   -0.2084    1.1002 C   0  0  0  0  0  0  0  0  0  0  0  0
    9.4076    1.0560    1.7236 C   0  0  0  0  0  0  0  0  0  0  0  0
   10.0323    0.2108   -0.9260 F   0  0  0  0  0  0  0  0  0  0  0  0
  1  2  1  0
  2  3  1  0
  2  4  1  0
  4  5  1  0
  5  6  1  0
  7  6  1  6
  7  8  1  0
  7  9  1  0
  9 10  1  0
 10 11  1  0
 11 12  1  0
 12 13  1  0
 12 14  1  0
 12 15  1  0
 15 16  1  0
 16 17  1  0
 17 18  1  0
 18 19  1  0
 19 20  1  0
 19 21  1  0
 21 22  1  0
 22 23  1  0
 23 24  1  0
 23 25  1  0
 25 26  1  0
 26 27  1  0
 27 28  1  0
 28 29  2  3
 29 30  1  0
 29 31  1  0
 31 32  1  0
 32 33  1  0
 33 34  1  1
 34 35  1  0
 33 36  1  0
 36 37  1  0
 37 38  1  0
 38 39  1  0
 39 40  1  0
 40 41  1  0
 41 42  1  0
 41 43  1  0
 43 44  1  0
 44 45  1  0
 44 46  1  0
 46 47  1  0
 44 48  1  0
 28  8  1  0
 27 23  1  0
 36 32  1  0
M  RAD  4   9   2  16   2  40   3  45   3
M  END
$$$$
