
     RDKit          3D

 10 11  0  0  0  0  0  0  0  0999 V2000
    0.1188    0.8541   -0.1198 C   0  0  0  0  0  0  0  0  0  0  0  0
    1.3645    1.2427   -0.0672 C   0  0  0  0  0  0  0  0  0  0  0  0
    2.2318    0.1772   -0.4302 O   0  0  0  0  0  0  0  0  0  0  0  0
    1.4521   -1.0019   -0.0316 C   0  0  0  0  0  0  0  0  0  0  0  0
    1.3948   -0.9241    1.5014 C   0  0  0  0  0  0  0  0  0  0  0  0
    0.1622   -0.5586   -0.5517 C   0  0  1  0  0  0  0  0  0  0  0  0
   -1.0542   -1.2658   -0.5047 C   0  0  0  0  0  0  0  0  0  0  0  0
   -2.2115   -0.6864   -0.1718 C   0  0  0  0  0  0  0  0  0  0  0  0
   -2.2897    0.7118    0.1797 C   0  0  0  0  0  0  0  0  0  0  0  0
   -1.1687    1.4510    0.1959 C   0  0  0  0  0  0  0  0  0  0  0  0
  1  2  2  0
  2  3  1  0
  3  4  1  0
  4  5  1  0
  6  4  1  1
  6  7  1  0
  7  8  2  0
  8  9  1  0
  9 10  2  0
  6  1  1  0
 10  1  1  0
M  END
$$$$
