
     RDKit          3D

 24 23  0  0  0  0  0  0  0  0999 V2000
    6.7470   -1.8252    0.8548 C   0  0  0  0  0  0  0  0  0  0  0  0
    7.0845   -0.5438    0.1132 C   0  0  0  0  0  0  0  0  0  0  0  0
    6.2712    0.5986    0.6670 C   0  0  2  0  0  0  0  0  0  0  0  0
    6.5736    0.7898    2.1431 C   0  0  0  0  0  0  0  0  0  0  0  0
    4.8266    0.3301    0.4660 C   0  0  0  0  0  0  0  0  0  0  0  0
    4.1082    1.1140   -0.2071 O   0  0  0  0  0  0  0  0  0  0  0  0
    4.2373   -0.8242    1.0367 N   0  0  0  0  0  0  0  0  0  0  0  0
    2.8036   -1.0665    0.8222 C   0  0  0  0  0  3  0  0  0  0  0  0
    2.1712   -1.1596    2.1954 C   0  0  0  0  0  3  0  0  0  0  0  0
    1.1607   -0.0497    2.3578 C   0  0  0  0  0  0  0  0  0  0  0  0
    0.0522   -0.1122    1.3525 C   0  0  0  0  0  0  0  0  0  0  0  0
    0.6196   -0.0089   -0.0402 C   0  0  0  0  0  3  0  0  0  0  0  0
   -0.5340   -0.0713   -0.9900 C   0  0  0  0  0  0  0  0  0  0  0  0
   -1.2821    0.9909   -1.1041 C   0  0  0  0  0  0  0  0  0  0  0  0
   -2.4551    1.2095   -1.9406 C   0  0  2  0  0  0  0  0  0  0  0  0
   -2.1294    2.0676   -3.1154 C   0  0  0  0  0  2  0  0  0  0  0  0
   -3.7211    1.5480   -1.2492 C   0  0  0  0  0  3  0  0  0  0  0  0
   -4.2808    0.5489   -0.3191 C   0  0  0  0  0  0  0  0  0  0  0  0
   -4.6712   -0.7598   -0.9165 C   0  0  0  0  0  0  0  0  0  0  0  0
   -5.7450   -0.5303   -1.9897 C   0  0  0  0  0  2  0  0  0  0  0  0
   -3.5330   -1.5185   -1.5616 C   0  0  0  0  0  0  0  0  0  0  0  0
   -5.1894   -1.6151    0.0990 O   0  0  0  0  0  0  0  0  0  0  0  0
   -6.3048   -1.2162    0.8087 C   0  0  0  0  0  0  0  0  0  0  0  0
   -6.8097   -0.1055    0.5171 O   0  0  0  0  0  0  0  0  0  0  0  0
  1  2  1  0
  2  3  1  0
  3  4  1  1
  3  5  1  0
  5  6  2  0
  5  7  1  0
  7  8  1  0
  8  9  1  0
  9 10  1  0
 10 11  1  0
 11 12  1  0
 12 13  1  0
 13 14  2  3
 14 15  1  0
 15 16  1  6
 15 17  1  0
 17 18  1  0
 18 19  1  0
 19 20  1  0
 19 21  1  0
 19 22  1  0
 22 23  1  0
 23 24  2  0
M  RAD  6   8   2   9   2  12   2  16   3  17   2  20   3
M  END
$$$$
