
     RDKit          3D

 12 11  0  0  0  0  0  0  0  0999 V2000
   -3.6480    0.9644    0.7198 O   0  0  0  0  0  0  0  0  0  0  0  0
   -3.0244    0.1647   -0.0309 C   0  0  0  0  0  0  0  0  0  0  0  0
   -2.5811    0.6331   -1.2552 O   0  0  0  0  0  0  0  0  0  0  0  0
   -2.7880   -1.2318    0.4109 C   0  0  0  0  0  0  0  0  0  0  0  0
   -1.3996   -1.6212   -0.0169 C   0  0  0  0  0  0  0  0  0  0  0  0
   -0.4086   -0.6776    0.6307 C   0  0  0  0  0  3  0  0  0  0  0  0
    0.8612   -1.0906    0.2455 O   0  0  0  0  0  0  0  0  0  0  0  0
    1.1993   -0.4741   -0.8593 O   0  0  0  0  0  0  0  0  0  0  0  0
    1.4515    0.8570   -0.5081 C   0  0  0  0  0  0  0  0  0  0  0  0
    2.4780    0.8750    0.4356 O   0  0  0  0  0  0  0  0  0  0  0  0
    3.5318    0.3168   -0.1216 O   0  0  0  0  0  0  0  0  0  0  0  0
    4.3279    1.2844   -0.5075 O   0  0  0  0  0  1  0  0  0  0  0  0
  1  2  2  0
  2  3  1  0
  2  4  1  0
  4  5  1  0
  5  6  1  0
  6  7  1  0
  7  8  1  0
  8  9  1  0
  9 10  1  0
 10 11  1  0
 11 12  1  0
M  CHG  1  12  -1
M  RAD  1   6   2
M  END
$$$$
