
     RDKit          3D

  7  8  0  0  0  0  0  0  0  0999 V2000
   -1.0868   -0.0972    0.8097 O   0  0  0  0  0  0  0  0  0  0  0  0
   -0.6050   -1.0466   -0.1882 C   0  0  0  0  0  0  0  0  0  0  0  0
    0.7780   -1.0169    0.0182 O   0  0  0  0  0  0  0  0  0  0  0  0
    1.2961   -0.2481    1.0878 C   0  0  0  0  0  0  0  0  0  0  0  0
    0.7875    1.2806    0.6683 C   0  0  0  0  0  0  0  0  0  0  0  0
   -0.1946    0.7609   -0.1747 C   0  0  0  0  0  0  0  0  0  0  0  0
   -0.9752    0.3672   -0.9360 C   0  0  0  0  0  0  0  0  0  0  0  0
  1  2  1  0
  2  3  1  0
  3  4  1  0
  4  5  1  0
  5  6  1  0
  6  7  2  0
  6  1  1  0
  7  2  1  0
M  END
$$$$
