
     RDKit          3D

 22 23  0  0  0  0  0  0  0  0999 V2000
    4.5084    0.9771   -1.2907 C   0  0  0  0  0  0  0  0  0  0  0  0
    5.8893    0.7659   -1.3795 O   0  0  0  0  0  0  0  0  0  0  0  0
    6.2148   -0.1344   -0.3752 C   0  0  0  0  0  3  0  0  0  0  0  0
    5.1922   -0.1291    0.5483 O   0  0  0  0  0  0  0  0  0  0  0  0
    4.0446   -0.0591   -0.2646 C   0  0  1  0  0  0  0  0  0  0  0  0
    2.8907    0.5888    0.4853 C   0  0  0  0  0  0  0  0  0  0  0  0
    2.3185   -0.3144    1.5414 C   0  0  0  0  0  3  0  0  0  0  0  0
    1.7801   -1.6083    0.9878 C   0  0  0  0  0  3  0  0  0  0  0  0
    0.6801   -1.3938   -0.0283 C   0  0  0  0  0  3  0  0  0  0  0  0
    0.3005    0.0428   -0.1795 C   0  0  0  0  0  3  0  0  0  0  0  0
   -1.1398    0.3237    0.0813 C   0  0  0  0  0  0  0  0  0  0  0  0
   -2.0993   -0.3801   -0.7936 C   0  0  0  0  0  0  0  0  0  0  0  0
   -1.7650   -0.4845   -2.1072 O   0  0  0  0  0  0  0  0  0  0  0  0
   -2.9649   -0.6408   -2.8393 C   0  0  0  0  0  0  0  0  0  0  0  0
   -1.3757    1.8142   -0.0590 C   0  0  0  0  0  0  0  0  0  0  0  0
   -2.5789    2.0604   -0.7189 O   0  0  0  0  0  0  0  0  0  0  0  0
   -3.6871    1.6894    0.0244 C   0  0  0  0  0  0  0  0  0  0  0  0
   -3.3438    0.8055    1.0368 O   0  0  0  0  0  0  0  0  0  0  0  0
   -4.1951   -0.2985    1.0431 C   0  0  2  0  0  0  0  0  0  0  0  0
   -3.8623   -1.1131    2.1243 O   0  0  0  0  0  0  0  0  0  0  0  0
   -4.0438   -1.0778   -0.1062 O   0  0  0  0  0  0  0  0  0  0  0  0
   -2.7635   -1.4339   -0.2449 O   0  0  0  0  0  0  0  0  0  0  0  0
  1  2  1  0
  2  3  1  0
  3  4  1  0
  4  5  1  0
  5  6  1  1
  6  7  1  0
  7  8  1  0
  8  9  1  0
  9 10  1  0
 10 11  1  0
 11 12  1  0
 12 13  1  0
 13 14  1  0
 11 15  1  0
 15 16  1  0
 16 17  1  0
 17 18  1  0
 18 19  1  0
 19 20  1  1
 19 21  1  0
 21 22  1  0
  5  1  1  0
 22 12  1  0
M  RAD  5   3   2   7   2   8   2   9   2  10   2
M  END
$$$$
