
     RDKit          3D

 56 58  0  0  0  0  0  0  0  0999 V2000
   10.1633    0.2532    2.2621 C   0  0  0  0  0  0  0  0  0  0  0  0
    9.3870   -0.1938    1.1045 C   0  0  0  0  0  0  0  0  0  0  0  0
    8.1131   -0.5621    1.1827 C   0  0  0  0  0  0  0  0  0  0  0  0
    7.3843   -0.9812    0.0989 O   0  0  0  0  0  0  0  0  0  0  0  0
    7.8477   -1.1606   -1.2082 C   0  0  0  0  0  0  0  0  0  0  0  0
    8.3773    0.0909   -1.7917 C   0  0  0  0  0  0  0  0  0  0  0  0
    8.4095    1.2997   -1.1339 C   0  0  0  0  0  0  0  0  0  0  0  0
    8.9137    2.4488   -1.7174 C   0  0  0  0  0  0  0  0  0  0  0  0
    9.4105    2.4210   -3.0028 C   0  0  0  0  0  0  0  0  0  0  0  0
   10.0570    3.8740   -3.7592 Cl  0  0  0  0  0  0  0  0  0  0  0  0
    9.3805    1.2122   -3.6666 C   0  0  0  0  0  0  0  0  0  0  0  0
    8.8755    0.0521   -3.0878 C   0  0  0  0  0  0  0  0  0  0  0  0
    8.8531   -1.1210   -3.7501 F   0  0  0  0  0  0  0  0  0  0  0  0
    7.4919   -0.5068    2.4924 C   0  0  0  0  0  0  0  0  0  0  0  0
    6.2420   -0.8583    2.6337 C   0  0  0  0  0  0  0  0  0  0  0  0
    5.6349   -0.7981    3.9486 C   0  0  0  0  0  0  0  0  0  0  0  0
    4.3840   -1.1393    4.1585 C   0  0  0  0  0  0  0  0  0  0  0  0
    3.4632   -1.6137    3.1133 C   0  0  0  0  0  0  0  0  0  0  0  0
    3.0390   -3.0311    3.5076 C   0  0  0  0  0  0  0  0  0  0  0  0
    4.0840   -1.6662    1.7695 C   0  0  0  0  0  0  0  0  0  0  0  0
    3.6097   -1.0066    0.7364 C   0  0  0  0  0  0  0  0  0  0  0  0
    4.3027   -1.1455   -0.4975 N   0  0  0  0  0  0  0  0  0  0  0  0
    2.4070   -0.1419    0.7958 C   0  0  0  0  0  0  0  0  0  0  0  0
    1.8647   -0.1545    2.1831 C   0  0  0  0  0  0  0  0  0  0  0  0
    0.6503    0.6812    2.3498 C   0  0  0  0  0  0  0  0  0  0  0  0
    0.1528    1.3371    1.3214 C   0  0  0  0  0  0  0  0  0  0  0  0
   -1.0264    2.2312    1.1943 C   0  0  0  0  0  0  0  0  0  0  0  0
   -2.1950    1.7613    1.9767 C   0  0  0  0  0  0  0  0  0  0  0  0
   -2.3208    1.2153    3.1689 C   0  0  0  0  0  0  0  0  0  0  0  0
   -1.1808    0.9311    4.0661 C   0  0  0  0  0  0  0  0  0  0  0  0
    0.0926    0.7035    3.6942 C   0  0  0  0  0  0  0  0  0  0  0  0
   -3.6810    0.8802    3.6015 C   0  0  0  0  0  0  0  0  0  0  0  0
   -3.8806   -0.4879    4.0327 C   0  0  0  0  0  0  0  0  0  0  0  0
   -3.6963   -1.5612    3.2040 C   0  0  0  0  0  0  0  0  0  0  0  0
   -3.4277   -1.9698    2.0524 C   0  0  0  0  0  0  0  0  0  0  0  0
   -3.3895   -3.4663    1.8259 C   0  0  0  0  0  0  0  0  0  0  0  0
   -3.1543   -1.1727    0.8724 C   0  0  0  0  0  0  0  0  0  0  0  0
   -2.8766   -1.6578   -0.3160 C   0  0  0  0  0  0  0  0  0  0  0  0
   -2.8159   -3.3790   -0.5646 Cl  0  0  0  0  0  0  0  0  0  0  0  0
   -2.6170   -0.7287   -1.4377 C   0  0  0  0  0  0  0  0  0  0  0  0
   -3.6678   -1.0264   -2.5072 C   0  0  0  0  0  0  0  0  0  0  0  0
   -3.4907   -0.1490   -3.6735 C   0  0  0  0  0  0  0  0  0  0  0  0
   -4.3973    0.6485   -4.0705 N   0  0  0  0  0  0  0  0  0  0  0  0
   -5.6253    0.8285   -3.5244 O   0  0  0  0  0  0  0  0  0  0  0  0
   -6.0524    0.1199   -2.3516 C   0  0  0  0  0  0  0  0  0  0  0  0
   -7.4395    0.5250   -1.9914 C   0  0  0  0  0  0  0  0  0  0  0  0
   -7.6190    1.0755   -0.7850 C   0  0  0  0  0  0  0  0  0  0  0  0
   -8.8743    1.5459   -0.2169 C   0  0  0  0  0  0  0  0  0  0  0  0
  -10.0869    1.1433   -0.5639 C   0  0  0  0  0  0  0  0  0  0  0  0
  -10.5404    0.1666   -1.5565 C   0  0  0  0  0  0  0  0  0  0  0  0
   -9.7338    0.1201   -2.7879 C   0  0  0  0  0  0  0  0  0  0  0  0
   -8.4404    0.2630   -3.0213 C   0  0  0  0  0  0  0  0  0  0  0  0
   -7.9603    0.1646   -4.3188 O   0  0  0  0  0  0  0  0  0  0  0  0
   -9.1430    0.0405   -5.5831 Cl  0  0  0  0  0  0  0  0  0  0  0  0
  -11.2055    1.7995    0.1888 C   0  0  0  0  0  0  0  0  0  0  0  0
  -12.0530    2.4757   -0.6507 F   0  0  0  0  0  0  0  0  0  0  0  0
  1  2  1  0
  2  3  2  3
  3  4  1  0
  4  5  1  0
  5  6  1  0
  6  7  2  0
  7  8  1  0
  8  9  2  0
  9 10  1  0
  9 11  1  0
 11 12  2  0
 12 13  1  0
  3 14  1  0
 14 15  2  3
 15 16  1  0
 16 17  2  3
 17 18  1  0
 18 19  1  0
 18 20  1  0
 20 21  2  3
 21 22  1  0
 21 23  1  0
 23 24  1  0
 24 25  1  0
 25 26  2  0
 26 27  1  0
 27 28  1  0
 28 29  2  0
 29 30  1  0
 30 31  2  0
 29 32  1  0
 32 33  1  0
 33 34  1  0
 34 35  2  3
 35 36  1  0
 35 37  1  0
 37 38  2  3
 38 39  1  0
 38 40  1  0
 40 41  1  0
 41 42  1  0
 42 43  2  3
 43 44  1  0
 44 45  1  0
 45 46  1  0
 46 47  2  0
 47 48  1  0
 48 49  2  0
 49 50  1  0
 50 51  1  0
 51 52  2  0
 52 53  1  0
 53 54  1  0
 49 55  1  0
 55 56  1  0
 12  6  1  0
 31 25  1  0
 52 46  1  0
M  END
$$$$
