
     RDKit          3D

 29 30  0  0  0  0  0  0  0  0999 V2000
   -2.4738    0.9371   -0.4974 C   0  0  0  0  0  0  0  0  0  0  0  0
   -3.3243    2.0358   -0.4635 O   0  0  0  0  0  0  0  0  0  0  0  0
   -2.7010    3.2169   -0.1262 C   0  0  0  0  0  3  0  0  0  0  0  0
   -1.5219    3.0535    0.5809 O   0  0  0  0  0  0  0  0  0  0  0  0
   -0.5000    3.5825   -0.2102 C   0  0  2  0  0  0  0  0  0  0  0  0
    0.5567    2.5068   -0.3382 C   0  0  0  0  0  0  0  0  0  0  0  0
    0.4502    4.4215    0.6210 C   0  0  0  0  0  3  0  0  0  0  0  0
    1.5734    3.5284    0.1155 C   0  0  1  0  0  0  0  0  0  0  0  0
    2.3176    3.0390    1.2484 N   0  0  0  0  0  0  0  0  0  0  0  0
    3.6106    2.5801    0.7489 C   0  0  0  0  0  3  0  0  0  0  0  0
    3.9418    1.2356    1.3360 C   0  0  0  0  0  0  0  0  0  0  0  0
    3.9239    0.1478    0.2962 C   0  0  0  0  0  0  0  0  0  0  0  0
    4.9257    0.3286   -0.6442 O   0  0  0  0  0  0  0  0  0  0  0  0
    4.0686   -1.0750    0.9620 O   0  0  0  0  0  0  0  0  0  0  0  0
    2.8057   -1.6072    1.2645 C   0  0  0  0  0  0  0  0  0  0  0  0
    2.4242   -2.4955    0.1139 C   0  0  1  0  0  0  0  0  0  0  0  0
    3.4837   -3.3692   -0.1681 O   0  0  0  0  0  0  0  0  0  0  0  0
    1.1554   -3.2757    0.3852 C   0  0  2  0  0  0  0  0  0  0  0  0
    1.4328   -4.4080    1.1533 O   0  0  0  0  0  0  0  0  0  0  0  0
    0.5811   -3.6926   -0.9576 C   0  0  0  0  0  0  0  0  0  0  0  0
    0.3029   -2.4958   -1.6364 O   0  0  0  0  0  0  0  0  0  0  0  0
   -0.7254   -1.8773   -0.9317 C   0  0  0  0  0  3  0  0  0  0  0  0
   -1.5957   -1.2153   -1.8067 O   0  0  0  0  0  0  0  0  0  0  0  0
   -2.8771   -1.4058   -1.3248 C   0  0  2  0  0  0  0  0  0  0  0  0
   -3.8020   -1.5865   -2.3591 O   0  0  0  0  0  0  0  0  0  0  0  0
   -3.3762   -0.2852   -0.4667 C   0  0  1  0  0  0  0  0  0  0  0  0
   -3.7159   -0.6682    0.8155 O   0  0  0  0  0  0  0  0  0  0  0  0
   -5.0608   -1.0621    0.8034 C   0  0  0  0  0  3  0  0  0  0  0  0
   -5.8802   -0.0943    1.4861 N   0  0  0  0  0  0  0  0  0  0  0  0
  1  2  1  0
  2  3  1  0
  3  4  1  0
  4  5  1  0
  5  6  1  1
  5  7  1  0
  8  7  1  1
  8  9  1  0
  9 10  1  0
 10 11  1  0
 11 12  1  0
 12 13  1  0
 12 14  1  0
 14 15  1  0
 15 16  1  0
 16 17  1  1
 16 18  1  0
 18 19  1  1
 18 20  1  0
 20 21  1  0
 21 22  1  0
 22 23  1  0
 23 24  1  0
 24 25  1  6
 24 26  1  0
 26 27  1  1
 27 28  1  0
 28 29  1  0
 26  1  1  0
  8  6  1  0
M  RAD  5   3   2   7   2  10   2  22   2  28   2
M  END
$$$$
