
     RDKit          3D

 68 69  0  0  0  0  0  0  0  0999 V2000
   14.3994    0.2958   -1.0888 C   0  0  0  0  0  0  0  0  0  0  0  0
   14.0592    1.5912   -0.4809 C   0  0  0  0  0  0  0  0  0  0  0  0
   14.6187    2.7756   -1.2285 C   0  0  0  0  0  0  0  0  0  0  0  0
   12.6515    1.7633   -0.0456 C   0  0  0  0  0  0  0  0  0  0  0  0
   11.6414    1.6158   -1.1244 C   0  0  0  0  0  0  0  0  0  0  0  0
   11.5805    0.2291   -1.6854 C   0  0  0  0  0  0  0  0  0  0  0  0
   11.1008   -0.8028   -0.7147 C   0  0  1  0  0  0  0  0  0  0  0  0
   11.8985   -0.9600    0.5287 C   0  0  0  0  0  2  0  0  0  0  0  0
    9.6187   -0.5918   -0.4094 C   0  0  0  0  0  0  0  0  0  0  0  0
    8.8352   -0.7115   -1.7142 C   0  0  0  0  0  0  0  0  0  0  0  0
    7.3878   -0.4993   -1.3760 C   0  0  2  0  0  0  0  0  0  0  0  0
    6.4744   -0.5845   -2.5563 C   0  0  0  0  0  3  0  0  0  0  0  0
    6.6054   -1.9657   -3.1788 C   0  0  0  0  0  3  0  0  0  0  0  0
    6.7294   -2.9578   -2.0407 C   0  0  0  0  0  0  0  0  0  0  0  0
    6.8648   -4.3649   -2.5621 C   0  0  0  0  0  0  0  0  0  0  0  0
    7.1765    0.8153   -0.6374 C   0  0  2  0  0  0  0  0  0  0  0  0
    7.9655    0.8337    0.6604 C   0  0  0  0  0  3  0  0  0  0  0  0
    7.5353   -0.2875    1.5689 C   0  0  0  0  0  0  0  0  0  0  0  0
    5.6882    0.9295   -0.3120 C   0  0  0  0  0  0  0  0  0  0  0  0
    5.5229    2.1375    0.3619 O   0  0  0  0  0  0  0  0  0  0  0  0
    4.1971    2.3257    0.6994 C   0  0  1  0  0  0  0  0  0  0  0  0
    3.3616    2.3425   -0.5830 C   0  0  0  0  0  0  0  0  0  0  0  0
    3.6347    1.1844    1.5365 C   0  0  1  0  0  0  0  0  0  0  0  0
    4.4265    1.0484    2.8358 C   0  0  0  0  0  3  0  0  0  0  0  0
    3.8197   -0.0982    3.6130 C   0  0  0  0  0  0  0  0  0  0  0  0
    2.7490   -0.6792    2.9370 O   0  0  0  0  0  0  0  0  0  0  0  0
    2.2380    1.6232    1.9665 C   0  0  1  0  0  0  0  0  0  0  0  0
    2.3773    2.8429    2.7381 N   0  0  0  0  0  2  0  0  0  0  0  0
    1.3337    1.7986    0.8738 N   0  0  0  0  0  0  0  0  0  0  0  0
    1.1503    0.5302    0.2024 C   0  0  0  0  0  0  0  0  0  0  0  0
    0.1966    0.6532   -0.9713 C   0  0  0  0  0  0  0  0  0  0  0  0
    0.0247   -0.6681   -1.6431 C   0  0  0  0  0  0  0  0  0  0  0  0
   -1.0626    1.2925   -0.4871 C   0  0  0  0  0  3  0  0  0  0  0  0
   -1.7762    0.5467    0.5876 C   0  0  0  0  0  0  0  0  0  0  0  0
   -0.9936    0.3290    1.8382 C   0  0  0  0  0  0  0  0  0  0  0  0
   -0.7833   -1.1363    2.1519 C   0  0  0  0  0  0  0  0  0  0  0  0
   -2.0606   -1.9110    2.1724 C   0  0  2  0  0  0  0  0  0  0  0  0
   -1.7881   -3.3057    1.6507 C   0  0  0  0  0  0  0  0  0  0  0  0
   -3.0643   -4.1163    1.6589 C   0  0  0  0  0  2  0  0  0  0  0  0
   -1.3357   -3.1705    0.2126 C   0  0  0  0  0  3  0  0  0  0  0  0
   -1.0387   -4.5250   -0.3926 C   0  0  0  0  0  3  0  0  0  0  0  0
   -0.6633   -4.3009   -1.8431 C   0  0  0  0  0  0  0  0  0  0  0  0
   -3.1628   -1.3091    1.3557 C   0  0  0  0  0  0  0  0  0  0  0  0
   -2.5531   -0.6450    0.1398 C   0  0  1  0  0  0  0  0  0  0  0  0
   -3.7370   -0.1132   -0.6788 C   0  0  0  0  0  0  0  0  0  0  0  0
   -3.2796    0.6739   -1.8732 C   0  0  0  0  0  2  0  0  0  0  0  0
   -4.5969   -1.2932   -1.0725 C   0  0  0  0  0  3  0  0  0  0  0  0
   -5.7478   -0.7519   -1.8683 C   0  0  0  0  0  0  0  0  0  0  0  0
   -6.8541   -0.4190   -1.1924 C   0  0  0  0  0  0  0  0  0  0  0  0
   -6.9702   -0.5670    0.2850 C   0  0  2  0  0  0  0  0  0  0  0  0
   -7.9579   -1.6035    0.7174 C   0  0  0  0  0  0  0  0  0  0  0  0
   -7.5873   -2.9453    0.1890 C   0  0  0  0  0  0  0  0  0  0  0  0
   -7.5680   -2.9112   -1.3230 C   0  0  0  0  0  0  0  0  0  0  0  0
   -8.9648   -2.5254   -1.7967 C   0  0  0  0  0  0  0  0  0  0  0  0
   -7.2302    0.7722    0.9501 C   0  0  1  0  0  0  0  0  0  0  0  0
   -6.1586    1.6028    0.6444 O   0  0  0  0  0  0  0  0  0  0  0  0
   -6.2940    2.7990    1.1825 O   0  0  0  0  0  0  0  0  0  0  0  0
   -8.5283    1.3943    0.5632 C   0  0  0  0  0  0  0  0  0  0  0  0
   -8.6823    1.6759   -0.8975 C   0  0  0  0  0  3  0  0  0  0  0  0
  -10.0282    2.2825   -1.1294 C   0  0  1  0  0  0  0  0  0  0  0  0
  -10.0202    3.5418   -1.9329 C   0  0  0  0  0  3  0  0  0  0  0  0
   -9.1790    4.5786   -1.2013 C   0  0  0  0  0  0  0  0  0  0  0  0
  -10.9623    1.2413   -1.6653 C   0  0  0  0  0  0  0  0  0  0  0  0
  -11.5255    0.4534   -0.5047 C   0  0  2  0  0  0  0  0  0  0  0  0
  -12.5183    1.2598    0.3029 C   0  0  0  0  0  3  0  0  0  0  0  0
  -13.0048    0.3665    1.4251 C   0  0  0  0  0  0  0  0  0  0  0  0
  -10.4649   -0.1907    0.3269 C   0  0  0  0  0  0  0  0  0  0  0  0
   -9.7210    0.7652    1.2029 C   0  0  0  0  0  3  0  0  0  0  0  0
  1  2  1  0
  2  3  1  0
  2  4  1  0
  4  5  1  0
  5  6  1  0
  6  7  1  0
  7  8  1  1
  7  9  1  0
  9 10  1  0
 11 10  1  6
 11 12  1  0
 12 13  1  0
 13 14  1  0
 14 15  1  0
 11 16  1  0
 16 17  1  1
 17 18  1  0
 16 19  1  0
 19 20  1  0
 20 21  1  0
 21 22  1  6
 21 23  1  0
 23 24  1  1
 24 25  1  0
 25 26  1  0
 23 27  1  0
 27 28  1  6
 27 29  1  0
 29 30  1  0
 30 31  1  0
 31 32  1  0
 31 33  1  0
 33 34  1  0
 34 35  1  0
 35 36  1  0
 36 37  1  0
 37 38  1  6
 38 39  1  0
 38 40  1  0
 40 41  1  0
 41 42  1  0
 37 43  1  0
 43 44  1  0
 44 45  1  6
 45 46  1  0
 45 47  1  0
 47 48  1  0
 48 49  2  3
 49 50  1  0
 50 51  1  6
 51 52  1  0
 52 53  1  0
 53 54  1  0
 50 55  1  0
 55 56  1  6
 56 57  1  0
 55 58  1  0
 58 59  1  0
 59 60  1  0
 60 61  1  6
 61 62  1  0
 60 63  1  0
 63 64  1  0
 64 65  1  1
 65 66  1  0
 64 67  1  0
 67 68  1  0
 44 34  1  0
 68 58  1  0
M  RAD  8   8   3  12   2  13   2  17   2  24   2  28   2  33   2  39   3
M  RAD  8  40   2  41   2  46   3  47   2  59   2  61   2  65   2  68   2
M  END
$$$$
