
     RDKit          3D

 11 10  0  0  0  0  0  0  0  0999 V2000
    2.6882    2.5046    0.1563 F   0  0  0  0  0  0  0  0  0  0  0  0
    3.7256    1.6692   -0.2315 C   0  0  0  0  0  0  0  0  0  0  0  0
    3.3357    0.2313   -0.0482 C   0  0  0  0  0  0  0  0  0  0  0  0
    2.1402   -0.0928    0.4246 C   0  0  0  0  0  0  0  0  0  0  0  0
    1.7183   -1.8204    0.6278 S   0  0  0  0  0  0  0  0  0  0  0  0
    0.0147   -2.1324    0.0227 C   0  0  0  0  0  0  0  0  0  0  0  0
   -0.8622   -1.3648    0.9725 C   0  0  0  0  0  0  0  0  0  0  0  0
   -1.5073   -0.3582    0.4271 C   0  0  0  0  0  0  0  0  0  0  0  0
   -2.3051    0.4652   -0.1583 N   0  0  0  0  0  0  0  0  0  0  0  0
   -3.6119   -0.1606   -1.1858 S   0  0  0  0  0  0  0  0  0  0  0  0
   -5.3361    1.0589   -0.7828 S   0  0  0  0  0  0  0  0  0  0  0  0
  1  2  1  0
  2  3  1  0
  3  4  2  3
  4  5  1  0
  5  6  1  0
  6  7  1  0
  7  8  2  0
  8  9  2  0
  9 10  1  0
 10 11  1  0
M  END
$$$$
