
     RDKit          3D

 47 47  0  0  0  0  0  0  0  0999 V2000
   10.3836   -0.8351    4.0864 O   0  0  0  0  0  0  0  0  0  0  0  0
   11.5968   -0.9324    3.6618 C   0  0  0  0  0  0  0  0  0  0  0  0
   12.5177   -1.1273    4.7566 O   0  0  0  0  0  0  0  0  0  0  0  0
   12.0158   -0.8475    2.3407 N   0  0  0  0  0  0  0  0  0  0  0  0
   11.5091   -0.5678    1.2021 O   0  0  0  0  0  0  0  0  0  0  0  0
   10.1148   -0.3415    1.1756 C   0  0  0  0  0  0  0  0  0  0  0  0
   10.0848    1.1691    0.6254 C   0  0  0  0  0  0  0  0  0  0  0  0
    8.6825    1.5317    0.4352 C   0  0  0  0  0  0  0  0  0  0  0  0
    7.8055    1.0425    1.5615 C   0  0  0  0  0  0  0  0  0  0  0  0
    8.2945    0.5418    2.5849 O   0  0  0  0  0  0  0  0  0  0  0  0
    6.4522    1.1332    1.4243 O   0  0  0  0  0  0  0  0  0  0  0  0
    5.5761    0.5289    2.3894 C   0  0  0  0  0  0  0  0  0  0  0  0
    6.1273   -0.9661    2.2873 C   0  0  0  0  0  0  0  0  0  0  0  0
    6.3302   -1.0263    0.7406 C   0  0  0  0  0  0  0  0  0  0  0  0
    5.1377   -0.5678   -0.0047 C   0  0  0  0  0  0  0  0  0  0  0  0
    5.0696   -0.6923   -1.2207 O   0  0  0  0  0  0  0  0  0  0  0  0
    4.1262    0.0107    0.7000 O   0  0  0  0  0  0  0  0  0  0  0  0
    2.9171    0.5689    0.3858 C   0  0  0  0  0  0  0  0  0  0  0  0
    2.0372   -0.2317   -0.4275 C   0  0  0  0  0  0  0  0  0  0  0  0
    0.6791    0.3462   -0.7312 C   0  0  0  0  0  0  0  0  0  0  0  0
    0.8466    1.7050   -1.4144 C   0  0  0  0  0  0  0  0  0  0  0  0
   -0.3739    2.4342   -1.3169 O   0  0  0  0  0  0  0  0  0  0  0  0
   -1.3022    1.5527   -1.9444 C   0  0  0  0  0  0  0  0  0  0  0  0
   -0.6930    1.2024   -3.2795 C   0  0  0  0  0  0  0  0  0  0  0  0
    0.1496   -0.0138   -3.1605 C   0  0  0  0  0  0  0  0  0  0  0  0
    0.0639   -0.6836   -1.7734 C   0  0  0  0  0  0  0  0  0  0  0  0
    1.0477   -1.8130   -1.7595 C   0  0  0  0  0  0  0  0  0  0  0  0
   -1.2588   -1.1185   -1.4667 C   0  0  0  0  0  0  0  0  0  0  0  0
   -1.6157   -2.1892   -2.4647 C   0  0  0  0  0  0  0  0  0  0  0  0
   -3.0733   -2.6652   -2.2665 C   0  0  0  0  0  0  0  0  0  0  0  0
   -3.9871   -1.4892   -2.5690 C   0  0  0  0  0  0  0  0  0  0  0  0
   -3.7590   -0.4041   -1.5574 N   0  0  0  0  0  0  0  0  0  0  0  0
   -4.5542    0.7423   -1.9917 C   0  0  0  0  0  0  0  0  0  0  0  0
   -4.7402    1.6779   -0.7956 C   0  0  0  0  0  0  0  0  0  0  0  0
   -5.4344    0.9955    0.3528 C   0  0  0  0  0  0  0  0  0  0  0  0
   -6.7636    0.4783    0.2437 C   0  0  0  0  0  0  0  0  0  0  0  0
   -7.1228   -0.4548   -0.6690 O   0  0  0  0  0  0  0  0  0  0  0  0
   -6.9654   -0.0677   -1.9491 C   0  0  0  0  0  0  0  0  0  0  0  0
   -7.8404    1.0865   -2.3931 C   0  0  0  0  0  0  0  0  0  0  0  0
   -9.2519    0.8278   -2.4238 C   0  0  0  0  0  0  0  0  0  0  0  0
  -10.1857    0.4128   -1.4426 C   0  0  0  0  0  0  0  0  0  0  0  0
  -10.0935   -0.9098   -0.7562 C   0  0  0  0  0  0  0  0  0  0  0  0
  -11.2909   -1.1197    0.1929 C   0  0  0  0  0  0  0  0  0  0  0  0
  -11.2957   -0.0181    1.1826 C   0  0  0  0  0  0  0  0  0  0  0  0
  -12.3556    0.0345    2.1253 C   0  0  0  0  0  0  0  0  0  0  0  0
  -12.2582    1.2699    2.7711 O   0  0  0  0  0  0  0  0  0  0  0  0
  -13.3504   -0.6770    2.5519 O   0  0  0  0  0  0  0  0  0  0  0  0
  1  2  2  0
  2  3  1  0
  2  4  1  0
  4  5  1  0
  5  6  1  0
  6  7  1  0
  7  8  1  0
  8  9  1  0
  9 10  2  0
  9 11  1  0
 11 12  1  0
 12 13  1  0
 13 14  1  0
 14 15  1  0
 15 16  2  0
 15 17  1  0
 17 18  1  0
 18 19  1  0
 19 20  1  0
 20 21  1  0
 21 22  1  0
 22 23  1  0
 23 24  1  0
 24 25  1  0
 25 26  1  0
 26 27  1  0
 26 28  1  0
 28 29  1  0
 29 30  1  0
 30 31  1  0
 31 32  1  0
 32 33  1  0
 33 34  1  0
 34 35  1  0
 35 36  1  0
 36 37  1  0
 37 38  1  0
 38 39  1  0
 39 40  1  0
 40 41  1  0
 41 42  1  0
 42 43  1  0
 43 44  1  0
 44 45  1  0
 45 46  2  0
 45 47  1  0
 26 20  1  0
M  END
$$$$
