
     RDKit          3D

 23 23  0  0  0  0  0  0  0  0999 V2000
    2.1661    1.4392    0.1366 C   0  0  0  0  0  0  0  0  0  0  0  0
    2.1433    0.1146   -0.6123 C   0  0  1  0  0  0  0  0  0  0  0  0
    3.6158   -0.2706   -0.8528 C   0  0  0  0  0  0  0  0  0  0  0  0
    4.3304    0.0010    0.4341 C   0  0  2  0  0  0  0  0  0  0  0  0
    5.6112   -0.5654    0.3011 O   0  0  0  0  0  0  0  0  0  0  0  0
    3.7043   -0.4727    1.6715 C   0  0  2  0  0  0  0  0  0  0  0  0
    4.3619   -1.5824    2.1756 O   0  0  0  0  0  0  0  0  0  0  0  0
    2.2206   -0.6418    1.6898 C   0  0  1  0  0  0  0  0  0  0  0  0
    1.5457    0.4006    2.3069 O   0  0  0  0  0  0  0  0  0  0  0  0
    1.6448   -0.9694    0.3516 C   0  0  1  0  0  0  0  0  0  0  0  0
    0.2042   -0.8831    0.3507 N   0  0  0  0  0  0  0  0  0  0  0  0
   -0.1918   -1.2151   -1.0276 C   0  0  0  0  0  3  0  0  0  0  0  0
   -0.6738   -0.0122   -1.7945 C   0  0  0  0  0  0  0  0  0  0  0  0
   -2.1760    0.0888   -1.5742 C   0  0  2  0  0  0  0  0  0  0  0  0
   -2.7060   -1.1060   -2.0666 O   0  0  0  0  0  0  0  0  0  0  0  0
   -2.7743    1.2957   -2.2374 C   0  0  0  0  0  0  0  0  0  0  0  0
   -2.5354    1.2589   -3.6067 O   0  0  0  0  0  0  0  0  0  0  0  0
   -2.4201    0.1334   -0.0985 C   0  0  1  0  0  0  0  0  0  0  0  0
   -1.9322    1.2755    0.5201 O   0  0  0  0  0  0  0  0  0  0  0  0
   -3.8731   -0.1483    0.2043 C   0  0  2  0  0  0  0  0  0  0  0  0
   -4.6440    0.9399   -0.2606 O   0  0  0  0  0  0  0  0  0  0  0  0
   -4.0136   -0.2701    1.7163 C   0  0  0  0  0  3  0  0  0  0  0  0
   -3.6083    0.9588    2.2725 O   0  0  0  0  0  0  0  0  0  0  0  0
  2  1  1  1
  2  3  1  0
  3  4  1  0
  4  5  1  6
  4  6  1  0
  6  7  1  6
  6  8  1  0
  8  9  1  6
  8 10  1  0
 10 11  1  1
 11 12  1  0
 12 13  1  0
 13 14  1  0
 14 15  1  6
 14 16  1  0
 16 17  1  0
 14 18  1  0
 18 19  1  6
 18 20  1  0
 20 21  1  1
 20 22  1  0
 22 23  1  0
 10  2  1  0
M  RAD  2  12   2  22   2
M  END
$$$$
