
     RDKit          3D

 25 26  0  0  0  0  0  0  0  0999 V2000
   -5.4235    0.3610   -0.4704 C   0  0  0  0  0  0  0  0  0  0  0  0
   -4.1424   -0.1425   -1.0576 C   0  0  1  0  0  0  0  0  0  0  0  0
   -3.1871    0.9962   -1.2421 C   0  0  0  0  0  0  0  0  0  0  0  0
   -1.8494    0.5619   -1.7469 C   0  0  2  0  0  0  0  0  0  0  0  0
   -1.8030    0.3392   -3.1028 O   0  0  0  0  0  0  0  0  0  0  0  0
   -1.3095   -0.5854   -0.9294 C   0  0  2  0  0  0  0  0  0  0  0  0
   -0.0504   -0.9464   -1.3907 O   0  0  0  0  0  0  0  0  0  0  0  0
   -2.2994   -1.7305   -1.0365 C   0  0  1  0  0  0  0  0  0  0  0  0
   -1.7871   -2.9261   -0.5700 O   0  0  0  0  0  0  0  0  0  0  0  0
   -3.5444   -1.2959   -0.2829 C   0  0  1  0  0  0  0  0  0  0  0  0
   -3.1161   -0.8892    1.0473 N   0  0  0  0  0  0  0  0  0  0  0  0
   -2.4927    0.4019    1.0661 C   0  0  0  0  0  3  0  0  0  0  0  0
   -1.3235    0.5104    1.9894 C   0  0  0  0  0  0  0  0  0  0  0  0
   -0.0251    0.8058    1.3119 C   0  0  0  0  0  3  0  0  0  0  0  0
   -0.0212    1.9515    0.5552 O   0  0  0  0  0  0  0  0  0  0  0  0
    0.6065   -0.3219    0.7079 N   0  0  0  0  0  0  0  0  0  0  0  0
    0.8767   -0.1552   -0.7016 C   0  0  1  0  0  0  0  0  0  0  0  0
    2.2458   -0.7804   -0.9966 C   0  0  1  0  0  0  0  0  0  0  0  0
    2.4897   -0.6108   -2.3576 O   0  0  0  0  0  0  0  0  0  0  0  0
    3.3336   -0.1286   -0.1876 C   0  0  2  0  0  0  0  0  0  0  0  0
    3.0478   -0.3237    1.1762 O   0  0  0  0  0  0  0  0  0  0  0  0
    3.3980    1.3582   -0.4382 C   0  0  0  0  0  3  0  0  0  0  0  0
    4.4966    1.9506    0.3924 C   0  0  0  0  0  0  0  0  0  0  0  0
    5.8484    1.3510    0.0572 C   0  0  0  0  0  3  0  0  0  0  0  0
    6.0316    0.2487    0.8828 O   0  0  0  0  0  0  0  0  0  0  0  0
  2  1  1  1
  2  3  1  0
  3  4  1  0
  4  5  1  6
  4  6  1  0
  6  7  1  6
  6  8  1  0
  8  9  1  1
  8 10  1  0
 10 11  1  1
 11 12  1  0
 12 13  1  0
 13 14  1  0
 14 15  1  0
 14 16  1  0
 17 16  1  1
 17 18  1  0
 18 19  1  6
 18 20  1  0
 20 21  1  1
 20 22  1  0
 22 23  1  0
 23 24  1  0
 24 25  1  0
 10  2  1  0
 17  7  1  0
M  RAD  4  12   2  14   2  22   2  24   2
M  END
$$$$
