
     RDKit          3D

  3  2  0  0  0  0  0  0  0  0999 V2000
    1.1179   -0.2523    0.0000 C   0  0  0  0  0  0  0  0  0  0  0  0
   -0.0372    0.5317   -0.0000 O   0  0  0  0  0  0  0  0  0  0  0  0
   -1.0807   -0.2793   -0.0000 O   0  0  0  0  0  0  0  0  0  0  0  0
  1  2  1  0
  2  3  1  0
M  END
$$$$
