
     RDKit          3D

 35 34  0  0  0  0  0  0  0  0999 V2000
   -8.6828    2.6863   -1.1660 C   0  0  0  0  0  0  0  0  0  0  0  0
   -7.9678    2.9503    0.1337 C   0  0  1  0  0  0  0  0  0  0  0  0
   -7.6301    1.7397    0.7576 O   0  0  0  0  0  0  0  0  0  0  0  0
   -6.6940    3.6891   -0.1635 C   0  0  0  0  0  3  0  0  0  0  0  0
   -5.8149    2.7669   -0.9094 N   0  0  0  0  0  0  0  0  0  0  0  0
   -4.6522    2.3622   -0.2073 C   0  0  0  0  0  0  0  0  0  0  0  0
   -4.4647    2.7925    0.9496 O   0  0  0  0  0  0  0  0  0  0  0  0
   -3.6927    1.4385   -0.8607 C   0  0  2  0  0  0  0  0  0  0  0  0
   -4.4004    0.1584   -1.2936 C   0  0  0  0  0  0  0  0  0  0  0  0
   -5.5010    0.5396   -2.2743 C   0  0  0  0  0  0  0  0  0  0  0  0
   -6.2505   -0.7099   -2.7314 C   0  0  0  0  0  0  0  0  0  0  0  0
   -6.8578   -1.3653   -1.5072 C   0  0  0  0  0  0  0  0  0  0  0  0
   -5.8329   -1.7519   -0.5334 N   0  0  0  0  0  0  0  0  0  0  0  0
   -2.6814    1.1565    0.1300 N   0  0  0  0  0  0  0  0  0  0  0  0
   -1.7547    0.0979    0.0638 C   0  0  0  0  0  0  0  0  0  0  0  0
   -1.7971   -0.6557   -0.9442 O   0  0  0  0  0  0  0  0  0  0  0  0
   -0.7566   -0.1079    1.1804 C   0  0  1  0  0  0  0  0  0  0  0  0
    0.1569    1.0874    1.2198 C   0  0  1  0  0  0  0  0  0  0  0  0
    1.1085    0.8364    2.4246 C   0  0  0  0  0  0  0  0  0  0  0  0
    1.1143    0.8569   -0.0064 C   0  0  0  0  0  0  0  0  0  0  0  0
    1.7533   -0.4318    0.2876 C   0  0  0  0  0  0  0  0  0  0  0  0
    3.0518   -0.6172    0.5616 C   0  0  0  0  0  0  0  0  0  0  0  0
    3.4893   -1.9497    0.8254 C   0  0  0  0  0  0  0  0  0  0  0  0
    4.6515   -2.3442    1.1126 C   0  0  0  0  0  0  0  0  0  0  0  0
    5.8516   -1.5333    1.2494 C   0  0  0  0  0  0  0  0  0  0  0  0
    6.8965   -2.0314    0.2942 C   0  0  0  0  0  0  0  0  0  0  0  0
    6.6010   -2.9710   -0.5801 C   0  0  0  0  0  0  0  0  0  0  0  0
    7.5483   -3.5263   -1.5505 C   0  0  0  0  0  0  0  0  0  0  0  0
    8.9351   -3.0172   -1.3173 C   0  0  0  0  0  0  0  0  0  0  0  0
    9.1009   -1.5675   -1.4115 C   0  0  0  0  0  0  0  0  0  0  0  0
    9.5022   -0.7787   -0.4010 C   0  0  0  0  0  0  0  0  0  0  0  0
    9.6290    0.6504   -0.6323 C   0  0  0  0  0  0  0  0  0  0  0  0
    9.3663    1.1194   -1.7548 O   0  0  0  0  0  0  0  0  0  0  0  0
   -1.4870   -0.2309    2.4601 C   0  0  0  0  0  0  0  0  0  0  0  0
   -1.8380   -1.3384    2.9029 O   0  0  0  0  0  0  0  0  0  0  0  0
  2  1  1  6
  2  3  1  0
  2  4  1  0
  4  5  1  0
  5  6  1  0
  6  7  2  0
  6  8  1  0
  8  9  1  1
  9 10  1  0
 10 11  1  0
 11 12  1  0
 12 13  1  0
  8 14  1  0
 14 15  1  0
 15 16  2  0
 15 17  1  0
 17 18  1  0
 18 19  1  1
 18 20  1  0
 20 21  1  0
 21 22  2  3
 22 23  1  0
 23 24  2  3
 24 25  1  0
 25 26  1  0
 26 27  2  3
 27 28  1  0
 28 29  1  0
 29 30  1  0
 30 31  2  3
 31 32  1  0
 32 33  2  0
 17 34  1  1
 34 35  2  0
M  RAD  1   4   2
M  END
$$$$
