
     RDKit          3D

 19 21  0  0  0  0  0  0  0  0999 V2000
   -0.2120    2.5868    0.8505 C   0  0  0  0  0  0  0  0  0  0  0  0
   -0.4646    1.2443    0.1631 C   0  0  0  0  0  3  0  0  0  0  0  0
   -1.7512    1.2240   -0.5802 C   0  0  0  0  0  0  0  0  0  0  0  0
   -2.5849    0.0125   -0.4091 C   0  0  0  0  0  0  0  0  0  0  0  0
   -3.1106   -0.1322    0.9619 C   0  0  0  0  0  0  0  0  0  0  0  0
   -4.0269    0.3408    1.5719 O   0  0  0  0  0  0  0  0  0  0  0  0
   -2.0329   -1.0975    1.2478 C   0  0  0  0  0  0  0  0  0  0  0  0
   -1.8577   -1.2753   -0.2472 C   0  0  2  0  0  0  0  0  0  0  0  0
   -0.4570   -1.3129   -0.6928 C   0  0  0  0  0  0  0  0  0  0  0  0
   -0.1593   -0.9365   -2.0727 C   0  0  0  0  0  0  0  0  0  0  0  0
    0.2499    0.5206   -2.1218 C   0  0  0  0  0  3  0  0  0  0  0  0
    0.6886    0.9200   -0.7521 C   0  0  1  0  0  0  0  0  0  0  0  0
    1.8098    1.8878   -0.6995 C   0  0  0  0  0  0  0  0  0  0  0  0
    3.0650    1.1048   -0.4111 C   0  0  0  0  0  0  0  0  0  0  0  0
    3.0273    0.0431    0.3691 C   0  0  0  0  0  0  0  0  0  0  0  0
    4.1895   -0.6616    0.6214 O   0  0  0  0  0  0  0  0  0  0  0  0
    1.7595   -0.4071    0.9801 C   0  0  0  0  0  0  0  0  0  0  0  0
    1.4345   -1.8129    0.7230 C   0  0  0  0  0  0  0  0  0  0  0  0
    0.4332   -2.2489   -0.0330 C   0  0  0  0  0  0  0  0  0  0  0  0
  1  2  1  0
  2  3  1  0
  3  4  1  0
  4  5  1  0
  5  6  2  0
  5  7  1  0
  8  7  1  1
  8  9  1  0
  9 10  1  0
 10 11  1  0
 11 12  1  0
 12 13  1  6
 13 14  1  0
 14 15  2  3
 15 16  1  0
 15 17  1  0
 17 18  1  0
 18 19  2  3
 12  2  1  0
  8  4  1  0
 19  9  1  0
M  RAD  2   2   2  11   2
M  END
$$$$
