
     RDKit          3D

 66 69  0  0  0  0  0  0  0  0999 V2000
   -3.3388   -1.2400    0.4591 C   0  0  0  0  0  0  0  0  0  0  0  0
   -2.3079   -1.8779    1.3548 C   0  0  0  0  0  2  0  0  0  0  0  0
   -2.4299   -3.3795    1.1979 C   0  0  0  0  0  0  0  0  0  0  0  0
   -3.8737   -3.8255    1.1290 C   0  0  2  0  0  0  0  0  0  0  0  0
   -4.2441   -4.6648    2.3432 C   0  0  0  0  0  0  0  0  0  0  0  0
   -4.0915   -4.5698   -0.0457 O   0  0  0  0  0  0  0  0  0  0  0  0
   -5.4395   -4.5728   -0.3195 C   0  0  0  0  0  0  0  0  0  0  0  0
   -6.1071   -3.3195    0.2092 C   0  0  0  0  0  3  0  0  0  0  0  0
   -5.8814   -2.2255   -0.8101 C   0  0  0  0  0  0  0  0  0  0  0  0
   -5.7016   -0.9260   -0.0472 C   0  0  0  0  0  3  0  0  0  0  0  0
   -4.7002   -1.1932    1.0576 C   0  0  2  0  0  0  0  0  0  0  0  0
   -4.8797   -0.1869    2.1443 C   0  0  0  0  0  0  0  0  0  0  0  0
   -4.7342    1.1956    1.6053 C   0  0  0  0  0  3  0  0  0  0  0  0
   -6.0271    1.8073    1.1330 C   0  0  0  0  0  0  0  0  0  0  0  0
   -5.7800    3.3189    1.0449 C   0  0  0  0  0  1  0  0  0  0  0  0
   -7.1522    1.6311    2.1326 C   0  0  2  0  0  0  0  0  0  0  0  0
   -7.2902    2.7924    3.1017 C   0  0  0  0  0  0  0  0  0  0  0  0
   -7.3364    0.3120    2.6801 C   0  0  0  0  0  0  0  0  0  0  0  0
   -8.4458    0.0827    2.0588 C   0  0  0  0  0  0  0  0  0  0  0  0
   -8.4236    1.3883    1.4105 C   0  0  0  0  0  0  0  0  0  0  0  0
   -8.2931    1.2743   -0.0758 C   0  0  0  0  0  0  0  0  0  0  0  0
   -7.9466    2.5783   -0.7182 C   0  0  0  0  0  0  0  0  0  0  0  0
   -8.2260    2.5495   -2.2039 C   0  0  0  0  0  3  0  0  0  0  0  0
   -7.6149    1.2832   -2.7652 C   0  0  0  0  0  2  0  0  0  0  0  0
   -6.2709    1.2481   -2.3963 O   0  0  0  0  0  0  0  0  0  0  0  0
   -5.5506    0.7332   -3.4849 C   0  0  0  0  0  3  0  0  0  0  0  0
   -4.5844   -0.1743   -3.0069 O   0  0  0  0  0  0  0  0  0  0  0  0
   -3.6078    0.5791   -2.3606 C   0  0  1  0  0  0  0  0  0  0  0  0
   -4.2542    1.5412   -1.5899 O   0  0  0  0  0  0  0  0  0  0  0  0
   -2.6887   -0.2050   -1.5951 N   0  0  0  0  0  0  0  0  0  0  0  0
   -2.8794    0.0083   -0.1948 C   0  0  2  0  0  0  0  0  0  0  0  0
   -1.7060    0.6575    0.4913 C   0  0  0  0  0  0  0  0  0  0  0  0
   -1.2802    1.9139   -0.2077 C   0  0  1  0  0  0  0  0  0  0  0  0
   -0.1178    2.5666    0.4634 C   0  0  0  0  0  3  0  0  0  0  0  0
   -0.1176    2.4089    1.9528 C   0  0  0  0  0  3  0  0  0  0  0  0
    0.4215    1.0711    2.4057 C   0  0  0  0  0  3  0  0  0  0  0  0
    1.7944    0.7830    1.8469 C   0  0  0  0  0  2  0  0  0  0  0  0
    2.6144    2.0473    1.6952 C   0  0  0  0  0  3  0  0  0  0  0  0
    3.1989    2.0079    0.4272 O   0  0  0  0  0  0  0  0  0  0  0  0
    4.5744    2.2153    0.4893 C   0  0  0  0  0  3  0  0  0  0  0  0
    5.2175    1.2453    1.2494 O   0  0  0  0  0  0  0  0  0  0  0  0
    6.4088    1.7595    1.7646 C   0  0  0  0  0  0  0  0  0  0  0  0
    7.3999    0.6613    2.1026 C   0  0  0  0  0  0  0  0  0  0  0  0
    6.7396   -0.7042    2.1126 C   0  0  0  0  0  3  0  0  0  0  0  0
    7.5258   -1.5511    1.3413 O   0  0  0  0  0  0  0  0  0  0  0  0
    6.8650   -2.6665    1.0607 O   0  0  0  0  0  0  0  0  0  0  0  0
    6.8410   -2.8670   -0.3135 C   0  0  0  0  0  3  0  0  0  0  0  0
   -1.0084    1.6668   -1.6770 C   0  0  0  0  0  3  0  0  0  0  0  0
    0.3474    1.3698   -1.8068 O   0  0  0  0  0  0  0  0  0  0  0  0
    0.5147    0.0882   -2.3300 C   0  0  0  0  0  3  0  0  0  0  0  0
    0.8086   -0.9056   -1.2191 C   0  0  0  0  0  3  0  0  0  0  0  0
    2.2568   -1.3677   -1.2746 C   0  0  0  0  0  0  0  0  0  0  0  0
    3.0823   -0.3160   -1.6579 O   0  0  0  0  0  0  0  0  0  0  0  0
    2.6688   -1.9648    0.0456 C   0  0  0  0  0  3  0  0  0  0  0  0
    4.1707   -1.8424    0.1626 C   0  0  0  0  0  2  0  0  0  0  0  0
    4.7320   -2.1059   -1.0918 O   0  0  0  0  0  0  0  0  0  0  0  0
    6.0687   -1.7620   -1.0245 C   0  0  2  0  0  0  0  0  0  0  0  0
    6.6510   -1.4869   -2.3790 C   0  0  0  0  0  3  0  0  0  0  0  0
    7.9800   -1.0876   -2.2261 O   0  0  0  0  0  0  0  0  0  0  0  0
    7.9927    0.1117   -1.5132 C   0  0  0  0  0  3  0  0  0  0  0  0
    9.3414    0.2869   -0.8573 C   0  0  0  0  0  2  0  0  0  0  0  0
    9.6448    1.6491   -0.8097 O   0  0  0  0  0  0  0  0  0  0  0  0
   10.9962    1.8531   -1.1159 C   0  0  0  0  0  3  0  0  0  0  0  0
   11.7435    0.5650   -0.8104 C   0  0  0  0  0  0  0  0  0  0  0  0
   12.2308    0.5881    0.6382 C   0  0  0  0  0  3  0  0  0  0  0  0
   13.4999    1.1489    0.7292 O   0  0  0  0  0  0  0  0  0  0  0  0
  1  2  1  0
  2  3  1  0
  3  4  1  0
  4  5  1  1
  4  6  1  0
  6  7  1  0
  7  8  1  0
  8  9  1  0
  9 10  1  0
 11 10  1  6
 11 12  1  0
 12 13  1  0
 13 14  1  0
 14 15  1  0
 14 16  1  0
 16 17  1  1
 16 18  1  0
 18 19  2  0
 19 20  1  0
 20 21  1  0
 21 22  1  0
 22 23  1  0
 23 24  1  0
 24 25  1  0
 25 26  1  0
 26 27  1  0
 27 28  1  0
 28 29  1  1
 28 30  1  0
 30 31  1  0
 31 32  1  1
 33 32  1  1
 33 34  1  0
 34 35  1  0
 35 36  1  0
 36 37  1  0
 37 38  1  0
 38 39  1  0
 39 40  1  0
 40 41  1  0
 41 42  1  0
 42 43  1  0
 43 44  1  0
 44 45  1  0
 45 46  1  0
 46 47  1  0
 33 48  1  0
 48 49  1  0
 49 50  1  0
 50 51  1  0
 51 52  1  0
 52 53  1  0
 52 54  1  0
 54 55  1  0
 55 56  1  0
 56 57  1  0
 57 58  1  6
 58 59  1  0
 59 60  1  0
 60 61  1  0
 61 62  1  0
 62 63  1  0
 63 64  1  0
 64 65  1  0
 65 66  1  0
 11  1  1  0
 31  1  1  0
 20 16  1  0
 57 47  1  0
M  RAD  8   2   3   8   2  10   2  13   2  15   2  23   2  24   3  26   2
M  RAD  8  34   2  35   2  36   2  37   3  38   2  40   2  44   2  47   2
M  RAD  8  48   2  50   2  51   2  54   2  55   3  58   2  60   2  61   3
M  RAD  2  63   2  65   2
M  END
$$$$
