
     RDKit          3D

 63 69  0  0  0  0  0  0  0  0999 V2000
    0.0772    0.6774   -0.8029 C   0  0  0  0  0  0  0  0  0  0  0  0
   -0.3846   -0.4415    0.0598 C   0  0  2  0  0  0  0  0  0  0  0  0
    0.3891   -0.3294    1.3454 C   0  0  0  0  0  0  0  0  0  0  0  0
   -0.0648   -1.7434   -0.6442 C   0  0  0  0  0  0  0  0  0  0  0  0
   -0.9446   -1.8333   -1.8612 C   0  0  0  0  0  0  0  0  0  0  0  0
   -2.3899   -2.0354   -1.5453 C   0  0  0  0  0  0  0  0  0  0  0  0
   -3.1401   -0.7849   -1.2524 C   0  0  1  0  0  0  0  0  0  0  0  0
   -4.1267   -0.3813   -2.2935 C   0  0  0  0  0  3  0  0  0  0  0  0
   -3.3730   -0.1647   -3.5991 C   0  0  0  0  0  0  0  0  0  0  0  0
   -3.6467   -0.6695    0.1568 C   0  0  0  0  0  0  0  0  0  0  0  0
   -5.3856   -0.0710    0.0192 S   0  0  0  0  0  0  0  0  0  0  0  0
   -6.6597   -1.2760    0.6077 C   0  0  2  0  0  0  0  0  0  0  0  0
   -6.6852   -1.1729    2.0975 C   0  0  0  0  0  0  0  0  0  0  0  0
   -5.4357   -1.4880    2.5960 O   0  0  0  0  0  0  0  0  0  0  0  0
   -6.3944   -2.6526    0.1056 C   0  0  0  0  0  0  0  0  0  0  0  0
   -5.5635   -3.3727    1.0600 N   0  0  0  0  0  0  0  0  0  0  0  0
   -4.1638   -3.3705    1.0262 C   0  0  0  0  0  0  0  0  0  0  0  0
   -3.4311   -4.4119    1.4412 C   0  0  0  0  0  0  0  0  0  0  0  0
   -1.9313   -4.3468    1.3788 C   0  0  0  0  0  0  0  0  0  0  0  0
   -1.6128   -3.3927    0.2478 C   0  0  0  0  0  0  0  0  0  0  0  0
   -0.1658   -2.9439    0.2557 C   0  0  0  0  0  0  0  0  0  0  0  0
    0.1485   -2.5800    1.5527 O   0  0  0  0  0  0  0  0  0  0  0  0
    0.6706   -4.0918   -0.1299 C   0  0  0  0  0  0  0  0  0  0  0  0
    0.6470   -4.4933   -1.5575 O   0  0  0  0  0  0  0  0  0  0  0  0
    1.7820   -3.6315   -1.1028 C   0  0  2  0  0  0  0  0  0  0  0  0
    2.0503   -4.1675    0.3286 C   0  0  0  0  0  0  0  0  0  0  0  0
    2.6970   -5.5256    0.3560 C   0  0  0  0  0  0  0  0  0  0  0  0
    2.4219   -3.1396    1.3716 C   0  0  0  0  0  0  0  0  0  0  0  0
    3.8964   -3.3692    1.7103 C   0  0  0  0  0  0  0  0  0  0  0  0
    4.6937   -2.7238    0.5891 C   0  0  2  0  0  0  0  0  0  0  0  0
    4.6533   -3.6212   -0.6223 C   0  0  0  0  0  0  0  0  0  0  0  0
    6.1111   -2.4080    1.0149 C   0  0  0  0  0  0  0  0  0  0  0  0
    6.1505   -1.0709    1.7314 C   0  0  0  0  0  0  0  0  0  0  0  0
    7.0016   -0.1381    0.8647 C   0  0  0  0  0  3  0  0  0  0  0  0
    6.9484    1.5647    1.4811 S   0  0  0  0  0  0  0  0  0  0  0  0
    5.8408    2.5417    0.4039 C   0  0  2  0  0  0  0  0  0  0  0  0
    6.5517    3.1885   -0.6027 O   0  0  0  0  0  0  0  0  0  0  0  0
    6.3675    2.5905   -1.8415 C   0  0  0  0  0  0  0  0  0  0  0  0
    5.0892    1.3221   -1.8306 S   0  0  0  0  0  0  0  0  0  0  0  0
    3.7808    1.6917   -0.6350 C   0  0  0  0  0  0  0  0  0  0  0  0
    3.4390    0.5126    0.1626 N   0  0  0  0  0  0  0  0  0  0  0  0
    2.3627   -0.2190   -0.4894 C   0  0  0  0  0  0  0  0  0  0  0  0
    1.3943    0.7361   -1.0321 C   0  0  0  0  0  0  0  0  0  0  0  0
    5.1346    3.5906    1.2275 C   0  0  0  0  0  3  0  0  0  0  0  0
    5.0593    5.1749    0.3346 S   0  0  0  0  0  0  0  0  0  0  0  0
    3.6295    5.1441   -0.7651 C   0  0  2  0  0  0  0  0  0  0  0  0
    3.8322    6.1016   -1.9329 C   0  0  0  0  0  0  0  0  0  0  0  0
    2.4087    5.5804    0.0526 C   0  0  0  0  0  3  0  0  0  0  0  0
    1.1740    4.2842   -0.0775 S   0  0  0  0  0  0  0  0  0  0  0  0
    1.0790    3.2913    1.4611 C   0  0  0  0  0  0  0  0  0  0  0  0
    0.1438    2.1199    1.1744 C   0  0  0  0  0  0  0  0  0  0  0  0
    0.6203    0.8811    1.8415 C   0  0  0  0  0  0  0  0  0  0  0  0
   -1.2566    2.4760    1.5545 C   0  0  0  0  0  0  0  0  0  0  0  0
   -2.2916    1.9587    0.5671 C   0  0  2  0  0  0  0  0  0  0  0  0
   -1.9250    2.2458   -0.7818 N   0  0  0  0  0  0  0  0  0  0  0  0
   -0.8011    1.6739   -1.3885 C   0  0  0  0  0  0  0  0  0  0  0  0
   -0.5152    2.0778   -2.6031 N   0  0  0  0  0  0  0  0  0  0  0  0
   -3.6252    2.4405    0.9928 C   0  0  0  0  0  0  0  0  0  0  0  0
   -4.6383    2.4231    0.0375 O   0  0  0  0  0  0  0  0  0  0  0  0
   -5.7007    1.5368   -0.0282 C   0  0  0  0  0  0  0  0  0  0  0  0
   -7.4074    1.9741   -0.1620 S   0  0  0  0  0  0  0  0  0  0  0  0
   -7.7060    3.7089   -0.2100 C   0  0  0  0  0  0  0  0  0  0  0  0
   -6.8795    4.5528   -0.5162 O   0  0  0  0  0  0  0  0  0  0  0  0
  1  2  1  0
  2  3  1  0
  2  4  1  6
  4  5  1  0
  5  6  1  0
  6  7  1  0
  7  8  1  6
  8  9  1  0
  7 10  1  0
 10 11  1  0
 11 12  1  0
 12 13  1  1
 13 14  1  0
 12 15  1  0
 15 16  1  0
 16 17  1  0
 17 18  2  3
 18 19  1  0
 19 20  1  0
 20 21  1  0
 21 22  1  0
 21 23  1  0
 23 24  1  0
 25 24  1  6
 25 26  1  0
 26 27  1  0
 26 28  1  0
 28 29  1  0
 29 30  1  0
 30 31  1  6
 30 32  1  0
 32 33  1  0
 33 34  1  0
 34 35  1  0
 35 36  1  0
 36 37  1  0
 37 38  1  0
 38 39  1  0
 39 40  1  0
 40 41  1  0
 41 42  1  0
 42 43  1  0
 36 44  1  1
 44 45  1  0
 45 46  1  0
 46 47  1  6
 46 48  1  0
 48 49  1  0
 49 50  1  0
 50 51  1  0
 51 52  1  0
 51 53  1  0
 54 53  1  1
 54 55  1  0
 55 56  1  0
 56 57  2  0
 54 58  1  0
 58 59  1  0
 59 60  1  0
 60 61  1  0
 61 62  1  0
 62 63  2  0
  1 43  2  3
 56  1  1  0
  3 52  2  3
 21  4  1  0
 11 60  2  3
 25 23  1  0
 26 23  1  0
M  RAD  4   8   2  34   2  44   2  48   2
M  END
$$$$
