
     RDKit          3D

  4  4  0  0  0  0  0  0  0  0999 V2000
   -0.3976    0.6751   -0.3440 C   0  0  0  0  0  0  0  0  0  0  0  0
   -0.7099   -0.4599   -0.0191 N   0  0  0  0  0  4  0  0  0  0  0  0
    0.4076   -0.7004    0.2930 N   0  0  0  0  0  4  0  0  0  0  0  0
    0.6998    0.4851    0.2686 C   0  0  0  0  0  0  0  0  0  0  0  0
  1  2  2  0
  2  3  2  0
  3  4  2  0
  1  4  2  0
M  CHG  2   2   1   3   1
M  END
$$$$
