
     RDKit          3D

 24 24  0  0  0  0  0  0  0  0999 V2000
   -2.9198   -2.2681    1.3605 C   0  0  0  0  0  0  0  0  0  0  0  0
   -2.8290   -1.8492   -0.0888 C   0  0  1  0  0  0  0  0  0  0  0  0
   -4.1599   -1.6190   -0.7146 C   0  0  0  0  0  0  0  0  0  0  0  0
   -4.8094   -0.3159   -0.3871 C   0  0  2  0  0  0  0  0  0  0  0  0
   -5.7842   -0.0683   -1.3773 O   0  0  0  0  0  0  0  0  0  0  0  0
   -3.8616    0.8578   -0.4251 C   0  0  2  0  0  0  0  0  0  0  0  0
   -3.4379    1.1030   -1.7421 O   0  0  0  0  0  0  0  0  0  0  0  0
   -2.6093    0.5392    0.3643 C   0  0  1  0  0  0  0  0  0  0  0  0
   -2.9992    0.1982    1.6534 O   0  0  0  0  0  0  0  0  0  0  0  0
   -1.9670   -0.6397   -0.2897 C   0  0  1  0  0  0  0  0  0  0  0  0
   -0.5797   -0.8344    0.0281 N   0  0  0  0  0  0  0  0  0  0  0  0
    0.0622    0.4644   -0.0300 C   0  0  0  0  0  3  0  0  0  0  0  0
    1.5675    0.3438    0.0030 C   0  0  0  0  0  0  0  0  0  0  0  0
    2.2405    1.6931   -0.0113 C   0  0  0  0  0  0  0  0  0  0  0  0
    1.8530    2.3425   -1.1868 O   0  0  0  0  0  0  0  0  0  0  0  0
    2.4401    3.5982   -1.2560 C   0  0  0  0  0  3  0  0  0  0  0  0
    3.8075    3.5046   -1.4420 O   0  0  0  0  0  0  0  0  0  0  0  0
    2.0577   -0.5533    1.0894 C   0  0  1  0  0  0  0  0  0  0  0  0
    1.5341   -1.8159    0.9004 O   0  0  0  0  0  0  0  0  0  0  0  0
    3.5733   -0.6062    1.0028 C   0  0  2  0  0  0  0  0  0  0  0  0
    4.1219    0.6597    1.1920 O   0  0  0  0  0  0  0  0  0  0  0  0
    3.9592   -1.0810   -0.3700 C   0  0  0  0  0  0  0  0  0  0  0  0
    3.3873   -2.3632   -0.5236 O   0  0  0  0  0  0  0  0  0  0  0  0
    5.3529   -1.2905   -0.3630 O   0  0  0  0  0  0  0  0  0  0  0  0
  2  1  1  1
  2  3  1  0
  3  4  1  0
  4  5  1  6
  4  6  1  0
  6  7  1  6
  6  8  1  0
  8  9  1  1
  8 10  1  0
 10 11  1  1
 11 12  1  0
 12 13  1  0
 13 14  1  0
 14 15  1  0
 15 16  1  0
 16 17  1  0
 13 18  1  0
 18 19  1  6
 18 20  1  0
 20 21  1  6
 20 22  1  0
 22 23  1  0
 22 24  1  0
 10  2  1  0
M  RAD  2  12   2  16   2
M  END
$$$$
