
     RDKit          3D

 43 43  0  0  0  0  0  0  0  0999 V2000
    2.8230   -0.5879    1.2190 O   0  0  0  0  0  0  0  0  0  0  0  0
    2.6273   -1.3233   -0.0351 C   0  0  0  0  0  0  0  0  0  0  0  0
    1.2010   -1.8040   -0.0510 C   0  0  0  0  0  3  0  0  0  0  0  0
    1.0854   -3.0256    0.6844 N   0  0  0  0  0  0  0  0  0  0  0  0
    1.1872   -4.2283   -0.1527 C   0  0  2  0  0  0  0  0  0  0  0  0
    1.3021   -3.6669   -1.5745 C   0  0  0  0  0  0  0  0  0  0  0  0
    1.8778   -4.6437   -2.3964 O   0  0  0  0  0  0  0  0  0  0  0  0
   -0.1470   -4.9680    0.0341 C   0  0  1  0  0  0  0  0  0  0  0  0
    0.1048   -5.9704    0.9963 O   0  0  0  0  0  0  0  0  0  0  0  0
   -1.1639   -4.0287    0.6140 C   0  0  2  0  0  0  0  0  0  0  0  0
   -2.0559   -4.6853    1.4894 O   0  0  0  0  0  0  0  0  0  0  0  0
   -2.0008   -3.3649   -0.4796 C   0  0  1  0  0  0  0  0  0  0  0  0
   -2.4930   -4.3540   -1.3381 O   0  0  0  0  0  0  0  0  0  0  0  0
   -3.1163   -2.6124    0.2168 C   0  0  0  0  0  0  0  0  0  0  0  0
   -4.0065   -2.0370   -0.6748 O   0  0  0  0  0  0  0  0  0  0  0  0
   -5.2953   -2.1849   -0.1555 C   0  0  1  0  0  0  0  0  0  0  0  0
   -5.1502   -2.1881    1.3594 C   0  0  0  0  0  0  0  0  0  0  0  0
   -6.1506   -1.0049   -0.5957 C   0  0  0  0  0  0  0  0  0  0  0  0
   -5.9588    0.0444    0.2864 O   0  0  0  0  0  0  0  0  0  0  0  0
   -5.6990    1.2135   -0.3286 N   0  0  0  0  0  3  0  0  0  0  0  0
   -5.6702    1.1190   -1.6683 O   0  0  0  0  0  1  0  0  0  0  0  0
   -4.4521    1.7293    0.1912 C   0  0  0  0  0  0  0  0  0  0  0  0
   -4.1729    2.9298   -0.4769 O   0  0  0  0  0  0  0  0  0  0  0  0
   -3.6690    3.8452    0.4404 C   0  0  1  0  0  0  0  0  0  0  0  0
   -3.2992    3.2124    1.6200 O   0  0  0  0  0  0  0  0  0  0  0  0
   -2.4172    4.4740   -0.1541 C   0  0  0  0  0  3  0  0  0  0  0  0
   -2.5288    5.8508   -0.0307 O   0  0  0  0  0  0  0  0  0  0  0  0
   -1.2507    6.3650    0.2268 C   0  0  0  0  0  0  0  0  0  0  0  0
   -0.2953    5.7036   -0.5507 O   0  0  0  0  0  0  0  0  0  0  0  0
    0.3015    4.7832    0.1596 O   0  0  0  0  0  0  0  0  0  0  0  0
    1.0698    4.0139   -0.7280 C   0  0  0  0  0  0  0  0  0  0  0  0
    2.3750    4.0465   -0.2399 O   0  0  0  0  0  0  0  0  0  0  0  0
    2.6329    2.7923    0.3276 C   0  0  2  0  0  0  0  0  0  0  0  0
    3.9030    2.8152    0.8765 O   0  0  0  0  0  0  0  0  0  0  0  0
    2.5129    1.8433   -0.7008 O   0  0  0  0  0  0  0  0  0  0  0  0
    3.3663    0.8414   -0.5430 O   0  0  0  0  0  0  0  0  0  0  0  0
    3.5898    0.5038    0.7154 C   0  0  2  0  0  0  0  0  0  0  0  0
    4.9253    0.2338    1.0566 O   0  0  0  0  0  0  0  0  0  0  0  0
    5.5710    0.3586   -0.0895 O   0  0  0  0  0  0  0  0  0  0  0  0
    6.7076    1.0096   -0.1808 C   0  0  0  0  0  3  0  0  0  0  0  0
    7.8792    0.1074    0.0980 C   0  0  0  0  0  3  0  0  0  0  0  0
    7.4768   -1.2540    0.5954 C   0  0  0  0  0  3  0  0  0  0  0  0
    6.4730   -1.9033   -0.3457 C   0  0  0  0  0  2  0  0  0  0  0  0
  1  2  1  0
  2  3  1  0
  3  4  1  0
  4  5  1  0
  5  6  1  6
  6  7  1  0
  5  8  1  0
  8  9  1  1
  8 10  1  0
 10 11  1  1
 10 12  1  0
 12 13  1  6
 12 14  1  0
 14 15  1  0
 15 16  1  0
 16 17  1  1
 16 18  1  0
 18 19  1  0
 19 20  1  0
 20 21  1  0
 20 22  1  0
 22 23  1  0
 23 24  1  0
 24 25  1  1
 24 26  1  0
 26 27  1  0
 27 28  1  0
 28 29  1  0
 29 30  1  0
 30 31  1  0
 31 32  1  0
 32 33  1  0
 33 34  1  6
 33 35  1  0
 35 36  1  0
 36 37  1  0
 37 38  1  6
 38 39  1  0
 39 40  1  0
 40 41  1  0
 41 42  1  0
 42 43  1  0
 37  1  1  0
M  CHG  2  20   1  21  -1
M  RAD  7   3   2  20   2  26   2  40   2  41   2  42   2  43   3
M  END
$$$$
