
     RDKit          3D

 37 40  0  0  0  0  0  0  0  0999 V2000
   -2.3907   -0.2321   -0.3403 C   0  0  0  0  0  0  0  0  0  0  0  0
   -2.6998   -1.4547   -0.5483 C   0  0  0  0  0  0  0  0  0  0  0  0
   -3.9089   -2.2153   -0.4947 C   0  0  0  0  0  0  0  0  0  0  0  0
   -3.9852   -3.1182    0.4292 O   0  0  0  0  0  0  0  0  0  0  0  0
   -4.9370   -2.0014   -1.3815 N   0  0  0  0  0  0  0  0  0  0  0  0
   -5.9499   -1.0680   -1.5112 C   0  0  0  0  0  0  0  0  0  0  0  0
   -6.6794   -1.0595   -2.6917 C   0  0  0  0  0  0  0  0  0  0  0  0
   -7.7235   -0.2184   -2.9549 C   0  0  0  0  0  0  0  0  0  0  0  0
   -8.1065    0.7019   -2.0004 C   0  0  0  0  0  0  0  0  0  0  0  0
   -7.4020    0.7140   -0.8253 C   0  0  0  0  0  0  0  0  0  0  0  0
   -6.3305   -0.1377   -0.5366 C   0  0  0  0  0  0  0  0  0  0  0  0
   -5.6090   -0.1258    0.6866 N   0  0  0  0  0  0  0  0  0  0  0  0
   -4.3632    0.5034    0.9232 C   0  0  0  0  0  0  0  0  0  0  0  0
   -3.3325    1.0977    1.4855 N   0  0  0  0  0  0  0  0  0  0  0  0
   -3.3690    0.7939    0.0493 C   0  0  0  0  0  0  0  0  0  0  0  0
   -3.3331    1.9742   -0.7990 N   0  0  0  0  0  0  0  0  0  0  0  0
   -2.2444    2.8461   -1.0525 C   0  0  0  0  0  0  0  0  0  0  0  0
   -0.9460    2.4941   -1.0766 C   0  0  0  0  0  0  0  0  0  0  0  0
   -0.3822    1.1861   -0.8534 C   0  0  0  0  0  0  0  0  0  0  0  0
   -0.9221    0.0312   -0.5486 C   0  0  0  0  0  0  0  0  0  0  0  0
   -0.1082   -1.1820   -0.4187 C   0  0  0  0  0  0  0  0  0  0  0  0
    1.2400   -1.1450   -0.7675 C   0  0  0  0  0  0  0  0  0  0  0  0
    2.3286   -0.4695   -0.3352 C   0  0  0  0  0  0  0  0  0  0  0  0
    2.7533    0.7758   -0.1981 N   0  0  0  0  0  0  0  0  0  0  0  0
    2.4272    1.7765    0.6805 C   0  0  0  0  0  0  0  0  0  0  0  0
    2.9253    1.5948    2.1004 C   0  0  0  0  0  0  0  0  0  0  0  0
    4.3523    1.5212    2.0513 O   0  0  0  0  0  0  0  0  0  0  0  0
    4.6353    0.2893    1.3967 C   0  0  0  0  0  0  0  0  0  0  0  0
    4.1785   -0.8085    2.3784 C   0  0  0  0  0  0  0  0  0  0  0  0
    4.9489   -0.7267    3.6406 C   0  0  0  0  0  0  0  0  0  0  0  0
    6.3509   -1.0043    3.6321 C   0  0  0  0  0  0  0  0  0  0  0  0
    7.2551   -0.2565    2.7637 C   0  0  0  0  0  0  0  0  0  0  0  0
    7.0782   -0.3924    1.4053 O   0  0  0  0  0  0  0  0  0  0  0  0
    7.9555    0.3102    0.6192 C   0  0  0  0  0  0  0  0  0  0  0  0
    7.6544    0.0570   -0.8018 N   0  0  0  0  0  0  0  0  0  0  0  0
    8.7984    0.9645   -1.7536 S   0  0  0  0  0  0  0  0  0  0  0  0
    9.8412    0.0155   -2.3522 O   0  0  0  0  0  0  0  0  0  0  0  0
  1  2  2  3
  2  3  1  0
  3  4  2  0
  3  5  1  0
  5  6  1  0
  6  7  2  0
  7  8  1  0
  8  9  2  0
  9 10  1  0
 10 11  2  0
 11 12  1  0
 12 13  1  0
 13 14  2  0
 14 15  1  0
 15 16  1  0
 16 17  1  0
 17 18  2  0
 18 19  1  0
 19 20  2  0
 20 21  1  0
 21 22  1  0
 22 23  1  0
 23 24  1  0
 24 25  1  0
 25 26  1  0
 26 27  1  0
 27 28  1  0
 28 29  1  0
 29 30  1  0
 30 31  1  0
 31 32  1  0
 32 33  1  0
 33 34  1  0
 34 35  1  0
 35 36  1  0
 36 37  2  0
 20  1  1  0
 15  1  1  0
 11  6  1  0
 15 13  1  0
M  END
$$$$
