
     RDKit          3D

 29 30  0  0  0  0  0  0  0  0999 V2000
   -3.8794   -2.8909   -1.0763 C   0  0  0  0  0  0  0  0  0  0  0  0
   -3.4115   -2.5442    0.3318 C   0  0  1  0  0  0  0  0  0  0  0  0
   -2.3803   -3.5608    0.7229 C   0  0  0  0  0  0  0  0  0  0  0  0
   -1.0379   -2.9510    1.0798 C   0  0  2  0  0  0  0  0  0  0  0  0
   -0.9964   -2.4583    2.3683 O   0  0  0  0  0  0  0  0  0  0  0  0
   -0.5221   -1.9840    0.0906 C   0  0  2  0  0  0  0  0  0  0  0  0
    0.1659   -0.9439    0.8146 O   0  0  0  0  0  0  0  0  0  0  0  0
   -1.6102   -1.2423   -0.6549 C   0  0  1  0  0  0  0  0  0  0  0  0
   -1.9550   -1.8079   -1.8692 O   0  0  0  0  0  0  0  0  0  0  0  0
   -2.7962   -1.1807    0.3032 C   0  0  1  0  0  0  0  0  0  0  0  0
   -3.7448   -0.1820   -0.1624 N   0  0  0  0  0  0  0  0  0  0  0  0
   -2.9756    0.8412   -0.8255 C   0  0  0  0  0  3  0  0  0  0  0  0
   -1.7750    1.2192   -0.0681 C   0  0  0  0  0  0  0  0  0  0  0  0
   -1.9278    2.4701    0.8182 C   0  0  0  0  0  0  0  0  0  0  0  0
   -2.4354    3.4914   -0.0039 O   0  0  0  0  0  0  0  0  0  0  0  0
   -1.8249    4.6854    0.2421 C   0  0  0  0  0  3  0  0  0  0  0  0
   -2.6409    5.7805    0.2096 O   0  0  0  0  0  0  0  0  0  0  0  0
   -0.5199    1.4243   -0.8963 C   0  0  1  0  0  0  0  0  0  0  0  0
   -0.4849    2.7045   -1.4590 O   0  0  0  0  0  0  0  0  0  0  0  0
    0.7518    1.0610   -0.1850 C   0  0  2  0  0  0  0  0  0  0  0  0
    1.7930    1.6730   -0.8529 O   0  0  0  0  0  0  0  0  0  0  0  0
    1.0086   -0.4744   -0.3010 C   0  0  1  0  0  0  0  0  0  0  0  0
    2.2984   -0.7130    0.2720 O   0  0  0  0  0  0  0  0  0  0  0  0
    3.0885   -1.8472   -0.7472 S   0  0  0  0  0  0  0  0  0  0  0  0
    4.8517   -1.7238   -0.7340 C   0  0  0  0  0  3  0  0  0  0  0  0
    5.2505   -0.3391   -1.1080 C   0  0  0  0  0  3  0  0  0  0  0  0
    4.9007    0.6509   -0.2155 O   0  0  0  0  0  0  0  0  0  0  0  0
    6.0537    1.0458    0.4580 C   0  0  0  0  0  3  0  0  0  0  0  0
    6.7553   -0.2038    0.9336 C   0  0  0  0  0  2  0  0  0  0  0  0
  2  1  1  6
  2  3  1  0
  3  4  1  0
  4  5  1  1
  4  6  1  0
  6  7  1  1
  6  8  1  0
  8  9  1  6
  8 10  1  0
 10 11  1  6
 11 12  1  0
 12 13  1  0
 13 14  1  0
 14 15  1  0
 15 16  1  0
 16 17  1  0
 13 18  1  0
 18 19  1  1
 18 20  1  0
 20 21  1  6
 20 22  1  0
 22 23  1  1
 23 24  1  0
 24 25  1  0
 25 26  1  0
 26 27  1  0
 27 28  1  0
 28 29  1  0
 10  2  1  0
 22  7  1  0
M  RAD  6  12   2  16   2  25   2  26   2  28   2  29   3
M  END
$$$$
