
     RDKit          3D

 23 24  0  0  0  0  0  0  0  0999 V2000
    3.0698   -1.9782   -0.3681 C   0  0  0  0  0  0  0  0  0  0  0  0
    3.0484   -0.6909    0.4286 C   0  0  1  0  0  0  0  0  0  0  0  0
    4.1785    0.1740    0.0120 C   0  0  0  0  0  0  0  0  0  0  0  0
    3.9180    1.5780    0.4709 C   0  0  2  0  0  0  0  0  0  0  0  0
    3.7042    1.5631    1.8469 O   0  0  0  0  0  0  0  0  0  0  0  0
    2.7278    2.0999   -0.2854 C   0  0  2  0  0  0  0  0  0  0  0  0
    2.1724    3.1364    0.4507 O   0  0  0  0  0  0  0  0  0  0  0  0
    1.7426    1.0371   -0.6902 C   0  0  1  0  0  0  0  0  0  0  0  0
    2.1208    0.5668   -1.9465 O   0  0  0  0  0  0  0  0  0  0  0  0
    1.6807   -0.0389    0.3458 C   0  0  1  0  0  0  0  0  0  0  0  0
    0.7702   -1.1001    0.0167 N   0  0  0  0  0  0  0  0  0  0  0  0
   -0.6093   -0.8523    0.1609 C   0  0  1  0  0  0  0  0  0  0  0  0
   -1.1882    0.2313   -0.6987 C   0  0  0  0  0  0  0  0  0  0  0  0
   -2.6330    0.4095   -0.2863 C   0  0  0  0  0  0  0  0  0  0  0  0
   -3.4848    0.2514   -1.4003 O   0  0  0  0  0  0  0  0  0  0  0  0
   -2.8798    1.7462    0.3737 C   0  0  0  0  0  0  0  0  0  0  0  0
   -2.6402    2.8138   -0.5134 O   0  0  0  0  0  0  0  0  0  0  0  0
   -3.0251   -0.6530    0.7340 C   0  0  1  0  0  0  0  0  0  0  0  0
   -4.3451   -0.4845    1.1276 O   0  0  0  0  0  0  0  0  0  0  0  0
   -2.8078   -2.0395    0.1662 C   0  0  2  0  0  0  0  0  0  0  0  0
   -3.1209   -2.9451    1.2068 O   0  0  0  0  0  0  0  0  0  0  0  0
   -1.3228   -2.1905   -0.0930 C   0  0  1  0  0  0  0  0  0  0  0  0
   -1.0761   -2.6345   -1.3942 O   0  0  0  0  0  0  0  0  0  0  0  0
  2  1  1  6
  2  3  1  0
  3  4  1  0
  4  5  1  1
  4  6  1  0
  6  7  1  1
  6  8  1  0
  8  9  1  6
  8 10  1  0
 10 11  1  6
 12 11  1  6
 12 13  1  0
 13 14  1  0
 14 15  1  0
 14 16  1  0
 16 17  1  0
 14 18  1  0
 18 19  1  6
 18 20  1  0
 20 21  1  1
 20 22  1  0
 22 23  1  6
 10  2  1  0
 22 12  1  0
M  END
$$$$
