
     RDKit          3D

 75 78  0  0  0  0  0  0  0  0999 V2000
   -0.0995   -0.4086   -0.8824 C   0  0  0  0  0  0  0  0  0  0  0  0
    0.3221    0.9627   -1.2174 C   0  0  0  0  0  0  0  0  0  0  0  0
    0.0863    2.0130   -0.2142 C   0  0  0  0  0  0  0  0  0  0  0  0
    0.3120    1.3545   -2.6359 C   0  0  0  0  0  0  0  0  0  0  0  0
    1.6534    1.4731   -3.2847 C   0  0  0  0  0  0  0  0  0  0  0  0
    2.1057    2.9319   -3.4160 C   0  0  0  0  0  0  0  0  0  0  0  0
    3.5582    3.0287   -3.0045 C   0  0  1  0  0  0  0  0  0  0  0  0
    3.7992    2.4336   -1.6290 C   0  0  0  0  0  0  0  0  0  0  0  0
    4.4543    2.2645   -3.9736 C   0  0  0  0  0  3  0  0  0  0  0  0
    5.8822    2.6798   -3.8574 C   0  0  0  0  0  3  0  0  0  0  0  0
    6.5665    2.1325   -2.6315 C   0  0  0  0  0  0  0  0  0  0  0  0
    6.5268    0.6304   -2.5561 C   0  0  0  0  0  3  0  0  0  0  0  0
    7.5824    0.0098   -3.4434 C   0  0  0  0  0  0  0  0  0  0  0  0
    6.6602    0.1249   -1.1496 C   0  0  0  0  0  3  0  0  0  0  0  0
    7.9044   -0.6991   -0.9319 C   0  0  0  0  0  0  0  0  0  0  0  0
    7.6214   -2.1746   -0.8872 C   0  0  0  0  0  0  0  0  0  0  0  0
    8.7997   -2.9296   -0.3647 C   0  0  0  0  0  3  0  0  0  0  0  0
    9.2117   -2.5411    1.0200 C   0  0  0  0  0  0  0  0  0  0  0  0
   10.4199   -3.4071    1.3867 C   0  0  0  0  0  0  0  0  0  0  0  0
    6.4204   -2.5169   -0.0367 C   0  0  0  0  0  0  0  0  0  0  0  0
    6.5943   -2.0958    1.4035 C   0  0  0  0  0  0  0  0  0  0  0  0
    4.9697   -1.7635   -0.7898 S   0  0  0  0  0  0  0  0  0  0  0  0
    3.9597   -1.0131    0.5227 C   0  0  0  0  0  0  0  0  0  0  0  0
    2.8846   -1.9893    0.8835 C   0  0  0  0  0  0  0  0  0  0  0  0
    2.9956   -3.3478    0.2694 C   0  0  0  0  0  0  0  0  0  0  0  0
    2.6240   -2.0307    2.6491 S   0  0  0  0  0  0  0  0  0  0  0  0
    0.5143   -2.0047    1.6792 C   0  0  0  0  0  0  0  0  0  0  0  0
    1.5258   -1.3389    0.7811 C   0  0  0  0  0  0  0  0  0  0  0  0
    1.1048   -1.3038   -0.6506 C   0  0  0  0  0  0  0  0  0  0  0  0
    2.2568   -0.7059   -1.4512 C   0  0  0  0  0  2  0  0  0  0  0  0
    0.8223   -2.9695   -1.3199 S   0  0  0  0  0  0  0  0  0  0  0  0
    0.3161   -2.8563   -3.0525 C   0  0  0  0  0  0  0  0  0  0  0  0
   -1.2135   -2.8643   -3.0736 C   0  0  0  0  0  3  0  0  0  0  0  0
   -1.7032   -3.9045   -2.0899 C   0  0  0  0  0  0  0  0  0  0  0  0
   -2.9555   -4.5177   -2.6653 C   0  0  1  0  0  0  0  0  0  0  0  0
   -3.8619   -3.4681   -3.2767 C   0  0  0  0  0  2  0  0  0  0  0  0
   -2.6018   -5.5507   -3.7089 C   0  0  0  0  0  0  0  0  0  0  0  0
   -3.7168   -5.1522   -1.5161 C   0  0  0  0  0  0  0  0  0  0  0  0
   -4.5137   -6.3349   -2.0208 C   0  0  0  0  0  0  0  0  0  0  0  0
   -5.3709   -6.8428   -0.8723 C   0  0  0  0  0  0  0  0  0  0  0  0
   -6.5860   -5.9613   -0.7514 C   0  0  0  0  0  0  0  0  0  0  0  0
   -6.3344   -4.7532    0.1374 C   0  0  0  0  0  0  0  0  0  0  0  0
   -6.9059   -4.9358    1.5183 C   0  0  0  0  0  0  0  0  0  0  0  0
   -6.9622   -3.5453   -0.5029 C   0  0  2  0  0  0  0  0  0  0  0  0
   -7.0503   -3.7853   -1.9856 C   0  0  0  0  0  1  0  0  0  0  0  0
   -6.1331   -2.3129   -0.2173 C   0  0  0  0  0  0  0  0  0  0  0  0
   -6.1248   -1.4091   -1.4205 C   0  0  0  0  0  0  0  0  0  0  0  0
   -6.5323   -0.0042   -0.9700 C   0  0  0  0  0  0  0  0  0  0  0  0
   -6.5960    0.9229   -2.1570 C   0  0  0  0  0  2  0  0  0  0  0  0
   -5.3323    0.6238    0.2416 S   0  0  0  0  0  0  0  0  0  0  0  0
   -3.6483    0.5794   -0.4327 C   0  0  0  0  0  0  0  0  0  0  0  0
   -2.6481    0.2163    0.6556 C   0  0  0  0  0  0  0  0  0  0  0  0
   -1.9427    1.4681    1.1599 C   0  0  0  0  0  0  0  0  0  0  0  0
   -0.9077    1.0457    2.1620 C   0  0  0  0  0  2  0  0  0  0  0  0
   -1.3695    2.2535    0.0127 C   0  0  0  0  0  3  0  0  0  0  0  0
   -1.6120    3.7276    0.1301 C   0  0  0  0  0  3  0  0  0  0  0  0
   -1.5877    4.3341   -1.2374 C   0  0  0  0  0  0  0  0  0  0  0  0
   -1.8357    5.8258   -1.0884 C   0  0  0  0  0  0  0  0  0  0  0  0
   -3.1984    6.0088   -0.4319 C   0  0  0  0  0  0  0  0  0  0  0  0
   -3.4690    7.4957   -0.2722 C   0  0  0  0  0  3  0  0  0  0  0  0
   -3.4700    8.1943   -1.6093 C   0  0  0  0  0  0  0  0  0  0  0  0
   -3.7405    9.6537   -1.3968 C   0  0  0  0  0  0  0  0  0  0  0  0
   -3.7532   10.4075   -2.7081 C   0  0  0  0  0  1  0  0  0  0  0  0
   -2.9203    2.3859    1.8919 C   0  0  0  0  0  0  0  0  0  0  0  0
   -2.0804    3.2882    2.7779 C   0  0  0  0  0  3  0  0  0  0  0  0
   -2.1491    2.7558    4.1735 C   0  0  0  0  0  0  0  0  0  0  0  0
   -0.7679    2.3879    4.7184 C   0  0  0  0  0  0  0  0  0  0  0  0
   -0.9392    2.2306    6.2260 C   0  0  1  0  0  0  0  0  0  0  0  0
   -1.0318    3.9851    6.9964 Br  0  0  0  0  0  0  0  0  0  0  0  0
   -2.2055    1.4261    6.4680 C   0  0  0  0  0  0  0  0  0  0  0  0
    0.5091    1.2556    6.9359 Si  0  0  0  0  0  3  0  0  0  0  0  0
    0.0164    0.7392    8.6618 C   0  0  0  0  0  0  0  0  0  0  0  0
    0.6790   -0.3254    5.9215 C   0  0  0  0  0  3  0  0  0  0  0  0
    1.9035    0.0351    4.6179 S   0  0  0  0  0  0  0  0  0  0  0  0
    2.3084   -1.5222    3.7832 C   0  0  0  0  0  3  0  0  0  0  0  0
  1  2  1  0
  2  3  1  0
  2  4  1  0
  4  5  1  0
  5  6  1  0
  6  7  1  0
  7  8  1  1
  7  9  1  0
  9 10  1  0
 10 11  1  0
 11 12  1  0
 12 13  1  6
 12 14  1  0
 14 15  1  0
 15 16  1  0
 16 17  1  0
 17 18  1  0
 18 19  1  0
 16 20  1  0
 20 21  1  0
 20 22  1  0
 22 23  1  0
 23 24  1  0
 24 25  1  0
 24 26  1  0
 26 27  1  0
 27 28  1  0
 28 29  1  0
 29 30  1  0
 29 31  1  0
 31 32  1  0
 32 33  1  0
 33 34  1  0
 34 35  1  0
 35 36  1  6
 35 37  1  0
 35 38  1  0
 38 39  1  0
 39 40  1  0
 40 41  1  0
 41 42  1  0
 42 43  1  0
 42 44  1  0
 44 45  1  6
 44 46  1  0
 46 47  1  0
 47 48  1  0
 48 49  1  0
 48 50  1  0
 50 51  1  0
 51 52  1  0
 52 53  1  0
 53 54  1  0
 53 55  1  0
 55 56  1  1
 56 57  1  0
 57 58  1  0
 58 59  1  0
 59 60  1  0
 60 61  1  0
 61 62  1  0
 62 63  1  0
 53 64  1  0
 64 65  1  0
 65 66  1  0
 66 67  1  0
 67 68  1  0
 68 69  1  0
 68 70  1  6
 68 71  1  0
 71 72  1  0
 71 73  1  0
 73 74  1  0
 74 75  1  0
 29  1  1  0
 55  3  1  0
 28 24  1  0
 75 26  1  0
M  RAD  8   9   2  10   2  12   2  14   2  17   2  30   3  33   2  36   3
M  RAD  8  45   2  49   3  54   3  55   2  56   2  60   2  63   2  65   2
M  RAD  3  71   2  73   2  75   2
M  END
$$$$
