
     RDKit          3D

 18 17  0  0  0  0  0  0  0  0999 V2000
    4.1388    0.7460   -1.6263 C   0  0  0  0  0  0  0  0  0  0  0  0
    4.3459    0.6395   -0.1124 C   0  0  0  0  0  0  0  0  0  0  0  0
    4.6044    2.0169    0.4385 C   0  0  0  0  0  0  0  0  0  0  0  0
    5.4888   -0.3186    0.1301 C   0  0  0  0  0  0  0  0  0  0  0  0
    3.0922    0.0205    0.5099 C   0  0  0  0  0  0  0  0  0  0  0  0
    1.9558    0.9765    0.1542 C   0  0  0  0  0  0  0  0  0  0  0  0
    0.6633    0.5078    0.6914 C   0  0  0  0  0  0  0  0  0  0  0  0
    0.3922    0.7041    1.8641 O   0  0  0  0  0  0  0  0  0  0  0  0
   -0.3009   -0.1951   -0.1785 C   0  0  0  0  0  0  0  0  0  0  0  0
   -0.7001    0.6991   -1.3276 C   0  0  0  0  0  0  0  0  0  0  0  0
    0.2727   -1.4785   -0.7535 C   0  0  0  0  0  0  0  0  0  0  0  0
   -1.5477   -0.5906    0.5925 C   0  0  0  0  0  3  0  0  0  0  0  0
   -2.4601   -1.3072   -0.3996 C   0  0  2  0  0  0  0  0  0  0  0  0
   -2.7459   -0.4532   -1.4640 O   0  0  0  0  0  0  0  0  0  0  0  0
   -3.7203   -1.7105    0.3439 C   0  0  0  0  0  0  0  0  0  0  0  0
   -4.3424   -0.4434    0.8530 C   0  0  0  0  0  0  0  0  0  0  0  0
   -4.1696   -0.1197    2.2983 C   0  0  0  0  0  0  0  0  0  0  0  0
   -4.9670    0.3063    0.1364 O   0  0  0  0  0  0  0  0  0  0  0  0
  1  2  1  0
  2  3  1  0
  2  4  1  0
  2  5  1  0
  5  6  1  0
  6  7  1  0
  7  8  2  0
  7  9  1  0
  9 10  1  0
  9 11  1  0
  9 12  1  0
 12 13  1  0
 13 14  1  6
 13 15  1  0
 15 16  1  0
 16 17  1  0
 16 18  2  0
M  RAD  1  12   2
M  END
$$$$
