
     RDKit          3D

 53 54  0  0  0  0  0  0  0  0999 V2000
  -13.8070   -4.7932    0.3502 C   0  0  0  0  0  0  0  0  0  0  0  0
  -13.6529   -3.9762   -0.9547 C   0  0  0  0  0  0  0  0  0  0  0  0
  -12.4086   -4.4027   -1.6681 C   0  0  0  0  0  0  0  0  0  0  0  0
  -13.6915   -2.5094   -0.5961 C   0  0  0  0  0  0  0  0  0  0  0  0
  -12.5809   -2.1045    0.3330 C   0  0  0  0  0  0  0  0  0  0  0  0
  -11.2618   -2.2299   -0.3483 C   0  0  0  0  0  0  0  0  0  0  0  0
  -11.0370   -1.2989   -1.4805 C   0  0  1  0  0  0  0  0  0  0  0  0
  -11.9874   -1.3581   -2.6187 C   0  0  0  0  0  0  0  0  0  0  0  0
  -10.8261    0.1186   -1.0436 C   0  0  0  0  0  3  0  0  0  0  0  0
   -9.6031    0.1405   -0.1404 C   0  0  0  0  0  0  0  0  0  0  0  0
   -8.4495   -0.3824   -0.9946 C   0  0  0  0  0  0  0  0  0  0  0  0
   -7.2060   -0.3833   -0.1426 C   0  0  2  0  0  0  0  0  0  0  0  0
   -7.3943   -1.2737    1.0642 C   0  0  0  0  0  0  0  0  0  0  0  0
   -6.9022    1.0401    0.2643 C   0  0  0  0  0  3  0  0  0  0  0  0
   -6.6767    1.8782   -0.9524 C   0  0  0  0  0  0  0  0  0  0  0  0
   -5.5447    1.5198   -1.7857 C   0  0  0  0  0  0  0  0  0  0  0  0
   -5.3623    2.3584   -2.9813 C   0  0  0  0  0  0  0  0  0  0  0  0
   -4.9407    0.2104   -1.7163 C   0  0  0  0  0  0  0  0  0  0  0  0
   -4.3953   -0.1050   -0.3619 C   0  0  0  0  0  0  0  0  0  0  0  0
   -3.3569    0.8545    0.0343 C   0  0  0  0  0  0  0  0  0  0  0  0
   -2.7538    0.7265    1.2320 O   0  0  0  0  0  0  0  0  0  0  0  0
   -2.8771    1.8397   -0.9408 C   0  0  0  0  0  0  0  0  0  0  0  0
   -2.2728    1.2292   -2.1721 C   0  0  0  0  0  0  0  0  0  0  0  0
   -1.0900    0.4121   -1.8295 C   0  0  0  0  0  0  0  0  0  0  0  0
    0.0613    1.1084   -1.2049 C   0  0  0  0  0  0  0  0  0  0  0  0
    1.0940    0.2124   -0.9331 O   0  0  0  0  0  0  0  0  0  0  0  0
   -0.1622    2.0464   -0.0746 C   0  0  0  0  0  0  0  0  0  0  0  0
   -0.1811    3.1969   -1.0572 C   0  0  0  0  0  0  0  0  0  0  0  0
    0.5985    2.3014   -1.9977 C   0  0  0  0  0  0  0  0  0  0  0  0
    2.0693    2.4386   -1.7862 C   0  0  0  0  0  0  0  0  0  0  0  0
    2.4313    2.6492   -0.3584 O   0  0  0  0  0  0  0  0  0  0  0  0
    2.7899    3.5436   -1.3392 C   0  0  0  0  0  0  0  0  0  0  0  0
    4.1620    3.6164   -1.5765 O   0  0  0  0  0  0  0  0  0  0  0  0
    4.8655    4.0100   -0.4144 C   0  0  0  0  0  0  0  0  0  0  0  0
    4.5381    2.9215    0.6139 C   0  0  0  0  0  0  0  0  0  0  0  0
    5.0483    1.6173   -0.0099 C   0  0  0  0  0  3  0  0  0  0  0  0
    6.5350    1.7527   -0.2411 C   0  0  0  0  0  0  0  0  0  0  0  0
    7.1930    1.9919    1.1050 C   0  0  2  0  0  0  0  0  0  0  0  0
    6.6958    3.1591    1.6950 O   0  0  0  0  0  0  0  0  0  0  0  0
    8.6898    2.2151    0.9339 C   0  0  0  0  0  3  0  0  0  0  0  0
    9.2678    2.4354    2.3175 C   0  0  0  0  0  0  0  0  0  0  0  0
    8.9850    1.1603    3.1151 C   0  0  0  0  0  0  0  0  0  0  0  0
    9.6663    0.0191    2.4053 C   0  0  2  0  0  0  0  0  0  0  0  0
    9.1401   -0.1294    1.0074 C   0  0  0  0  0  0  0  0  0  0  0  0
    9.5318   -1.2751    3.1469 C   0  0  0  0  0  0  0  0  0  0  0  0
   10.2583   -2.3342    2.3288 C   0  0  0  0  0  0  0  0  0  0  0  0
   10.1868   -3.6830    2.9887 C   0  0  0  0  0  0  0  0  0  0  0  0
   10.8213   -3.6554    4.3640 C   0  0  0  0  0  0  0  0  0  0  0  0
   10.9935   -4.6405    2.1134 C   0  0  2  0  0  0  0  0  0  0  0  0
   12.3964   -4.1294    2.0508 C   0  0  0  0  0  1  0  0  0  0  0  0
   10.4014   -4.7035    0.7325 C   0  0  0  0  0  3  0  0  0  0  0  0
   10.4189   -3.3369    0.1166 C   0  0  0  0  0  0  0  0  0  0  0  0
   11.5821   -3.0668   -0.5918 O   0  0  0  0  0  1  0  0  0  0  0  0
  1  2  1  0
  2  3  1  0
  2  4  1  0
  4  5  1  0
  5  6  1  0
  6  7  1  0
  7  8  1  6
  7  9  1  0
  9 10  1  0
 10 11  1  0
 11 12  1  0
 12 13  1  1
 12 14  1  0
 14 15  1  0
 15 16  1  0
 16 17  1  0
 16 18  1  0
 18 19  1  0
 19 20  1  0
 20 21  1  0
 20 22  1  0
 22 23  1  0
 23 24  1  0
 24 25  1  0
 25 26  1  0
 25 27  1  0
 27 28  1  0
 28 29  1  0
 29 30  1  0
 30 31  1  0
 31 32  1  0
 32 33  1  0
 33 34  1  0
 34 35  1  0
 35 36  1  0
 36 37  1  0
 37 38  1  0
 38 39  1  6
 38 40  1  0
 40 41  1  0
 41 42  1  0
 42 43  1  0
 43 44  1  6
 43 45  1  0
 45 46  1  0
 46 47  1  0
 47 48  1  0
 47 49  1  0
 49 50  1  6
 49 51  1  0
 51 52  1  0
 52 53  1  0
 29 25  1  0
 32 30  1  0
M  CHG  1  53  -1
M  RAD  6   9   2  14   2  36   2  40   2  50   2  51   2
M  END
$$$$
