
     RDKit          3D

 24 25  0  0  0  0  0  0  0  0999 V2000
   -3.7138   -1.7485    0.0353 C   0  0  0  0  0  0  0  0  0  0  0  0
   -3.1134   -0.6117   -0.7565 C   0  0  1  0  0  0  0  0  0  0  0  0
   -3.9985    0.5885   -0.8317 C   0  0  0  0  0  0  0  0  0  0  0  0
   -3.9580    1.3664    0.4739 C   0  0  2  0  0  0  0  0  0  0  0  0
   -4.8286    2.4426    0.4081 O   0  0  0  0  0  0  0  0  0  0  0  0
   -2.5202    1.8147    0.7721 C   0  0  2  0  0  0  0  0  0  0  0  0
   -1.9676    2.3537   -0.3982 O   0  0  0  0  0  0  0  0  0  0  0  0
   -1.7583    0.5145    1.0334 C   0  0  1  0  0  0  0  0  0  0  0  0
   -2.5270   -0.1893    1.9740 O   0  0  0  0  0  0  0  0  0  0  0  0
   -1.7549   -0.2186   -0.2851 C   0  0  1  0  0  0  0  0  0  0  0  0
   -0.7658   -1.2401   -0.3901 N   0  0  0  0  0  0  0  0  0  0  0  0
    0.4523   -0.7509    0.2205 C   0  0  0  0  0  3  0  0  0  0  0  0
    1.6535   -0.9225   -0.6934 C   0  0  0  0  0  0  0  0  0  0  0  0
    2.8572   -0.4105    0.0787 C   0  0  0  0  0  0  0  0  0  0  0  0
    4.0418   -0.9145   -0.4464 O   0  0  0  0  0  0  0  0  0  0  0  0
    2.8090    1.0867    0.0935 C   0  0  0  0  0  0  0  0  0  0  0  0
    2.9307    1.6039   -1.1967 O   0  0  0  0  0  0  0  0  0  0  0  0
    2.8828    3.0022   -1.1660 C   0  0  0  0  0  3  0  0  0  0  0  0
    3.6968    3.5574    0.0062 C   0  0  0  0  0  0  0  0  0  0  0  0
    2.7349   -0.8935    1.3937 O   0  0  0  0  0  0  0  0  0  0  0  0
    2.0278   -2.0973    1.4033 C   0  0  0  0  0  0  0  0  0  0  0  0
    2.3614   -2.9232    0.3290 O   0  0  0  0  0  0  0  0  0  0  0  0
    1.8468   -2.4195   -0.8737 C   0  0  1  0  0  0  0  0  0  0  0  0
    0.6111   -2.9904   -1.1843 O   0  0  0  0  0  0  0  0  0  0  0  0
  2  1  1  1
  2  3  1  0
  3  4  1  0
  4  5  1  6
  4  6  1  0
  6  7  1  6
  6  8  1  0
  8  9  1  1
  8 10  1  0
 10 11  1  1
 11 12  1  0
 12 13  1  0
 13 14  1  0
 14 15  1  0
 14 16  1  0
 16 17  1  0
 17 18  1  0
 18 19  1  0
 14 20  1  0
 20 21  1  0
 21 22  1  0
 22 23  1  0
 23 24  1  1
 10  2  1  0
 23 13  1  0
M  RAD  2  12   2  18   2
M  END
$$$$
