
     RDKit          3D

 78 83  0  0  0  0  0  0  0  0999 V2000
   -2.8799   -2.0049    0.2341 C   0  0  0  0  0  0  0  0  0  0  0  0
   -2.3572   -2.4475    1.3773 C   0  0  0  0  0  0  0  0  0  0  0  0
   -3.0665   -2.2580    2.6624 C   0  0  0  0  0  0  0  0  0  0  0  0
   -1.0267   -3.1490    1.3549 C   0  0  0  0  0  0  0  0  0  0  0  0
   -1.1886   -4.4018    2.2242 C   0  0  0  0  0  0  0  0  0  0  0  0
   -0.8830   -4.1325    3.5893 N   0  0  0  0  0  0  0  0  0  0  0  0
   -0.0616   -4.8765    4.2240 C   0  0  0  0  0  0  0  0  0  0  0  0
    0.5727   -6.0246    3.5285 C   0  0  0  0  0  0  0  0  0  0  0  0
    2.0694   -5.8829    3.6084 C   0  0  0  0  0  0  0  0  0  0  0  0
    2.6862   -6.7745    4.6622 C   0  0  0  0  0  0  0  0  0  0  0  0
    2.4516   -4.4776    3.9551 C   0  0  0  0  0  0  0  0  0  0  0  0
    3.1981   -3.8389    3.0645 C   0  0  0  0  0  0  0  0  0  0  0  0
    3.6118   -2.4808    3.3183 C   0  0  0  0  0  0  0  0  0  0  0  0
    4.7027   -1.9597    2.8004 C   0  0  0  0  0  0  0  0  0  0  0  0
    5.5344   -2.8183    1.9181 C   0  0  0  0  0  0  0  0  0  0  0  0
    6.5959   -1.9154    1.3066 C   0  0  0  0  0  0  0  0  0  0  0  0
    6.0373   -0.6658    1.1474 O   0  0  0  0  0  0  0  0  0  0  0  0
    6.3982   -0.0785   -0.0791 C   0  0  0  0  0  0  0  0  0  0  0  0
    6.6633    1.3940    0.2070 C   0  0  0  0  0  0  0  0  0  0  0  0
    5.7842    1.8395    1.2557 N   0  0  0  0  0  0  0  0  0  0  0  0
    5.3241    3.1915    1.0828 C   0  0  0  0  0  0  0  0  0  0  0  0
    4.3664    3.5088    2.2112 C   0  0  0  0  0  0  0  0  0  0  0  0
    3.3565    4.3772    1.8287 O   0  0  0  0  0  0  0  0  0  0  0  0
    2.1035    3.9008    2.2041 C   0  0  0  0  0  0  0  0  0  0  0  0
    1.1075    5.0239    2.3824 C   0  0  0  0  0  0  0  0  0  0  0  0
    1.2794    5.9711    1.2151 C   0  0  0  0  0  0  0  0  0  0  0  0
    0.3227    7.1415    1.2951 C   0  0  0  0  0  0  0  0  0  0  0  0
    0.6205    7.8770    2.5954 C   0  0  0  0  0  0  0  0  0  0  0  0
   -0.3073    9.0526    2.7220 C   0  0  0  0  0  0  0  0  0  0  0  0
   -0.2842    4.4374    2.4467 C   0  0  0  0  0  0  0  0  0  0  0  0
   -1.1910    5.2725    1.6507 C   0  0  0  0  0  0  0  0  0  0  0  0
   -2.2891    4.8402    1.0602 C   0  0  0  0  0  0  0  0  0  0  0  0
   -2.7508    3.4638    1.1208 C   0  0  0  0  0  0  0  0  0  0  0  0
   -2.6213    2.6052    0.1215 C   0  0  0  0  0  0  0  0  0  0  0  0
   -3.1361    1.2406    0.3229 C   0  0  0  0  0  0  0  0  0  0  0  0
   -3.7468    0.6257   -0.8776 C   0  0  0  0  0  0  0  0  0  0  0  0
   -4.0857    1.5499   -1.9835 C   0  0  0  0  0  0  0  0  0  0  0  0
   -4.8717    2.7542   -1.5976 C   0  0  0  0  0  0  0  0  0  0  0  0
   -6.1945    2.4490   -0.9755 C   0  0  0  0  0  0  0  0  0  0  0  0
   -7.2110    1.9806   -1.9260 C   0  0  0  0  0  0  0  0  0  0  0  0
   -7.8822    0.8720   -1.6583 C   0  0  0  0  0  0  0  0  0  0  0  0
   -8.9200    0.4136   -2.6510 C   0  0  0  0  0  0  0  0  0  0  0  0
   -1.9829    2.9810   -1.1678 C   0  0  0  0  0  0  0  0  0  0  0  0
   -0.7453    2.1493   -1.4370 C   0  0  0  0  0  0  0  0  0  0  0  0
   -0.5933    2.0138   -2.8106 O   0  0  0  0  0  0  0  0  0  0  0  0
   -0.8523    0.8770   -0.8785 O   0  0  0  0  0  0  0  0  0  0  0  0
    0.4325    2.9189   -0.8838 C   0  0  0  0  0  0  0  0  0  0  0  0
    1.6904    2.0933   -1.0235 C   0  0  0  0  0  0  0  0  0  0  0  0
    2.8350    3.0921   -1.2318 C   0  0  0  0  0  0  0  0  0  0  0  0
    3.4883    2.7706   -2.5532 C   0  0  0  0  0  0  0  0  0  0  0  0
    4.1797    1.4544   -2.4363 C   0  0  0  0  0  0  0  0  0  0  0  0
    4.6008    1.0825   -1.2234 C   0  0  0  0  0  0  0  0  0  0  0  0
    5.2927   -0.2347   -1.1066 C   0  0  0  0  0  0  0  0  0  0  0  0
    5.9116   -0.5675   -2.4095 C   0  0  0  0  0  0  0  0  0  0  0  0
    5.2377   -1.1663   -3.3943 C   0  0  0  0  0  0  0  0  0  0  0  0
    5.9471   -1.4599   -4.6681 C   0  0  0  0  0  0  0  0  0  0  0  0
    5.9219   -2.9508   -4.9147 C   0  0  0  0  0  0  0  0  0  0  0  0
    6.6458   -3.2546   -6.2155 C   0  0  0  0  0  0  0  0  0  0  0  0
    3.8500   -1.4977   -3.1673 C   0  0  0  0  0  0  0  0  0  0  0  0
    3.3738   -1.9692   -2.0222 C   0  0  0  0  0  0  0  0  0  0  0  0
    1.9807   -2.2477   -1.9561 N   0  0  0  0  0  0  0  0  0  0  0  0
    1.4092   -2.9062   -2.8937 C   0  0  0  0  0  0  0  0  0  0  0  0
    0.6575   -3.8960   -2.6431 N   0  0  0  0  0  0  0  0  0  0  0  0
   -0.7313   -3.7438   -2.2580 C   0  0  0  0  0  0  0  0  0  0  0  0
   -0.8983   -2.7525   -1.1355 C   0  0  0  0  0  0  0  0  0  0  0  0
   -2.1844   -2.1901   -1.0286 N   0  0  0  0  0  0  0  0  0  0  0  0
   -2.7389   -1.8228   -2.2627 N   0  0  0  0  0  0  0  0  0  0  0  0
   -4.0630   -2.1465   -2.2549 N   0  0  0  0  0  0  0  0  0  0  0  0
   -5.0515   -1.2658   -1.8184 C   0  0  0  0  0  0  0  0  0  0  0  0
   -6.2252   -2.1244   -1.3913 C   0  0  0  0  0  0  0  0  0  0  0  0
   -6.9817   -2.3485   -0.3611 C   0  0  0  0  0  0  0  0  0  0  0  0
   -6.8093   -2.2972    0.9942 O   0  0  0  0  0  0  0  0  0  0  0  0
   -5.8741   -2.2420    2.0168 C   0  0  0  0  0  0  0  0  0  0  0  0
   -4.5222   -1.8419    1.5750 N   0  0  0  0  0  0  0  0  0  0  0  0
   -4.1780   -1.3602    0.4410 C   0  0  0  0  0  0  0  0  0  0  0  0
   -4.7621   -0.4247   -0.5949 C   0  0  0  0  0  0  0  0  0  0  0  0
   -6.0544    0.1101   -0.0679 C   0  0  0  0  0  0  0  0  0  0  0  0
   -6.0379    1.5721    0.2340 C   0  0  0  0  0  3  0  0  0  0  0  0
  1  2  2  3
  2  3  1  0
  2  4  1  0
  4  5  1  0
  5  6  1  0
  6  7  2  3
  7  8  1  0
  8  9  1  0
  9 10  1  0
  9 11  1  0
 11 12  2  3
 12 13  1  0
 13 14  2  3
 14 15  1  0
 15 16  1  0
 16 17  1  0
 17 18  1  0
 18 19  1  0
 19 20  1  0
 20 21  1  0
 21 22  1  0
 22 23  1  0
 23 24  1  0
 24 25  1  0
 25 26  1  0
 26 27  1  0
 27 28  1  0
 28 29  1  0
 25 30  1  0
 30 31  1  0
 31 32  2  3
 32 33  1  0
 33 34  2  3
 34 35  1  0
 35 36  1  0
 36 37  1  0
 37 38  1  0
 38 39  1  0
 39 40  1  0
 40 41  2  3
 41 42  1  0
 34 43  1  0
 43 44  1  0
 44 45  1  0
 44 46  1  0
 44 47  1  0
 47 48  1  0
 48 49  1  0
 49 50  1  0
 50 51  1  0
 51 52  2  3
 52 53  1  0
 53 54  1  0
 54 55  2  3
 55 56  1  0
 56 57  1  0
 57 58  1  0
 55 59  1  0
 59 60  2  3
 60 61  1  0
 61 62  2  0
 62 63  2  0
 63 64  1  0
 64 65  1  0
 65 66  1  0
 66 67  1  0
 67 68  1  0
 68 69  1  0
 69 70  1  0
 70 71  2  3
 71 72  1  0
 72 73  1  0
 73 74  1  0
 74 75  2  3
 75 76  1  0
 76 77  1  0
 77 78  1  0
 66  1  1  0
 75  1  1  0
 53 18  1  0
 76 36  1  0
 78 39  1  0
 76 69  1  0
M  RAD  1  78   2
M  END
$$$$
