
     RDKit          3D

 50 53  0  0  0  0  0  0  0  0999 V2000
   -1.4000   -0.0692    0.1044 C   0  0  0  0  0  0  0  0  0  0  0  0
   -1.3777   -0.7446    1.3160 O   0  0  0  0  0  0  0  0  0  0  0  0
   -0.7111   -0.0328    2.3061 C   0  0  0  0  0  3  0  0  0  0  0  0
   -0.0427   -0.9083    3.1766 O   0  0  0  0  0  0  0  0  0  0  0  0
    1.1945   -1.1439    2.5251 C   0  0  2  0  0  0  0  0  0  0  0  0
    1.9125    0.2093    2.6072 C   0  0  0  0  0  0  0  0  0  0  0  0
    0.7900   -1.4226    1.0698 C   0  0  0  0  0  3  0  0  0  0  0  0
    1.1059   -0.2876    0.1635 C   0  0  1  0  0  0  0  0  0  0  0  0
    1.9345   -0.7004   -1.0075 C   0  0  0  0  0  3  0  0  0  0  0  0
    3.2475   -1.2896   -0.6908 C   0  0  0  0  0  0  0  0  0  0  0  0
    4.1772   -0.3958    0.0719 C   0  0  0  0  0  0  0  0  0  0  0  0
    5.4948   -1.0301    0.3739 C   0  0  0  0  0  0  0  0  0  0  0  0
    4.2644    0.8826   -0.4174 O   0  0  0  0  0  0  0  0  0  0  0  0
    4.8846    1.6666    0.5827 C   0  0  0  0  0  0  0  0  0  0  0  0
    6.3104    1.9865    0.1540 C   0  0  0  0  0  0  0  0  0  0  0  0
    7.2220    1.5380    1.0886 O   0  0  0  0  0  0  0  0  0  0  0  0
    8.4123    1.3221    0.5365 O   0  0  0  0  0  0  0  0  0  0  0  0
    8.8031    0.1140    0.8707 O   0  0  0  0  0  0  0  0  0  0  0  0
    7.6738   -0.7016    0.8755 C   0  0  2  0  0  0  0  0  0  0  0  0
    7.7661   -1.7327    1.7878 O   0  0  0  0  0  0  0  0  0  0  0  0
    7.5235   -1.1978   -0.4230 O   0  0  0  0  0  0  0  0  0  0  0  0
    6.2826   -0.9228   -0.7804 O   0  0  0  0  0  0  0  0  0  0  0  0
   -0.0716    0.5495   -0.2387 C   0  0  1  0  0  0  0  0  0  0  0  0
   -0.0184    0.7147   -1.7409 C   0  0  0  0  0  3  0  0  0  0  0  0
   -0.8816    1.7279   -2.2559 N   0  0  0  0  0  0  0  0  0  0  0  0
   -0.0334   -0.5870   -2.4592 C   0  0  2  0  0  0  0  0  0  0  0  0
    0.4115   -0.5258   -3.8783 C   0  0  0  0  0  0  0  0  0  0  0  0
   -0.3897    0.3145   -4.6154 O   0  0  0  0  0  0  0  0  0  0  0  0
    0.0907    0.2991   -5.8608 O   0  0  0  0  0  0  0  0  0  0  0  0
   -1.1953   -1.4737   -2.1798 C   0  0  0  0  0  0  0  0  0  0  0  0
   -1.9229   -1.6156   -3.3611 O   0  0  0  0  0  0  0  0  0  0  0  0
   -2.8734   -0.5757   -3.3590 C   0  0  0  0  0  3  0  0  0  0  0  0
   -3.2249   -0.3618   -2.0514 O   0  0  0  0  0  0  0  0  0  0  0  0
   -4.3845    0.3364   -1.8458 C   0  0  1  0  0  0  0  0  0  0  0  0
   -4.3432    2.1381   -2.5283 Br  0  0  0  0  0  0  0  0  0  0  0  0
   -5.3971   -0.3363   -2.5722 O   0  0  0  0  0  0  0  0  0  0  0  0
   -4.7547    0.2614   -0.4126 C   0  0  1  0  0  0  0  0  0  0  0  0
   -5.4150   -0.9106   -0.1390 O   0  0  0  0  0  0  0  0  0  0  0  0
   -6.4265   -0.6881    0.7015 O   0  0  0  0  0  0  0  0  0  0  0  0
   -5.8800   -0.0270    1.7933 C   0  0  2  0  0  0  0  0  0  0  0  0
   -6.5515   -0.3134    2.9579 O   0  0  0  0  0  0  0  0  0  0  0  0
   -5.7744    1.4818    1.5417 C   0  0  0  0  0  0  0  0  0  0  0  0
   -4.2647    1.7484    1.4278 C   0  0  0  0  0  0  0  0  0  0  0  0
   -3.6276    1.7077    3.1180 S   0  0  0  0  0  0  0  0  0  0  0  0
   -3.7590    0.0539    3.8444 C   0  0  0  0  0  3  0  0  0  0  0  0
   -3.2044    0.1274    5.2481 C   0  0  0  0  0  0  0  0  0  0  0  0
   -3.6854    0.6101    0.5711 C   0  0  0  0  0  0  0  0  0  0  0  0
   -2.4162    0.9355    0.0216 N   0  0  0  0  0  0  0  0  0  0  0  0
   -1.9482    2.2031    0.5730 C   0  0  0  0  0  2  0  0  0  0  0  0
   -3.5270   -0.5170    1.4086 O   0  0  0  0  0  0  0  0  0  0  0  0
  1  2  1  0
  2  3  1  0
  3  4  1  0
  4  5  1  0
  5  6  1  6
  5  7  1  0
  7  8  1  0
  8  9  1  6
  9 10  1  0
 10 11  1  0
 11 12  1  0
 11 13  1  0
 13 14  1  0
 14 15  1  0
 15 16  1  0
 16 17  1  0
 17 18  1  0
 18 19  1  0
 19 20  1  1
 19 21  1  0
 21 22  1  0
  8 23  1  0
 23 24  1  6
 24 25  1  0
 24 26  1  0
 26 27  1  6
 27 28  1  0
 28 29  1  0
 26 30  1  0
 30 31  1  0
 31 32  1  0
 32 33  1  0
 33 34  1  0
 34 35  1  0
 34 36  1  6
 34 37  1  0
 37 38  1  1
 38 39  1  0
 39 40  1  0
 40 41  1  1
 40 42  1  0
 42 43  1  0
 43 44  1  0
 44 45  1  0
 45 46  1  0
 43 47  1  0
 47 48  1  0
 48 49  1  0
 47 50  1  0
 23  1  1  0
 48  1  1  0
 22 12  1  0
 47 37  1  0
M  RAD  7   3   2   7   2   9   2  24   2  32   2  45   2  49   3
M  END
$$$$
