
     RDKit          3D

 29 30  0  0  0  0  0  0  0  0999 V2000
   -5.1158   -1.4670    0.8041 C   0  0  0  0  0  0  0  0  0  0  0  0
   -3.6794   -1.1779    1.1119 C   0  0  0  0  0  3  0  0  0  0  0  0
   -2.9872   -2.4033    1.0182 O   0  0  0  0  0  0  0  0  0  0  0  0
   -1.9810   -2.1976    0.0683 C   0  0  0  0  0  0  0  0  0  0  0  0
   -0.8546   -1.4951    0.7800 C   0  0  0  0  0  0  0  0  0  0  0  0
   -0.8837   -0.0095    0.6422 C   0  0  0  0  0  0  0  0  0  0  0  0
    0.7255    0.6414    1.1545 S   0  0  0  0  0  0  0  0  0  0  0  0
    1.9299    0.0838   -0.0073 N   0  0  0  0  0  0  0  0  0  0  0  0
    3.0972    0.9257    0.1366 C   0  0  0  0  0  0  0  0  0  0  0  0
    4.1150    0.4198   -0.8753 C   0  0  0  0  0  0  0  0  0  0  0  0
    4.4651   -1.0379   -0.5905 C   0  0  2  0  0  0  0  0  0  0  0  0
    5.6999   -1.6389   -1.8212 P   0  0  0  0  0  0  0  0  0  0  0  0
    6.9654   -2.4473   -0.9568 O   0  0  0  0  0  0  0  0  0  0  0  0
    8.1209   -1.6708   -1.0314 C   0  0  0  0  0  0  0  0  0  0  0  0
    7.7577   -0.0815   -0.2913 S   0  0  0  0  0  0  0  0  0  0  0  0
    6.8403   -0.3385    1.0114 C   0  0  0  0  0  0  0  0  0  0  0  0
    6.4297    0.7292    1.7505 F   0  0  0  0  0  0  0  0  0  0  0  0
    2.8451   -2.1004   -0.7064 Br  0  0  0  0  0  0  0  0  0  0  0  0
   -1.3847    0.5749   -0.9579 S   0  0  0  0  0  0  0  0  0  0  0  0
   -0.9688    2.1047   -1.0884 C   0  0  0  0  0  0  0  0  0  0  0  0
   -1.3362    3.2534   -0.0224 S   0  0  0  0  0  0  0  0  0  0  0  0
   -2.8378    3.8994    0.1500 C   0  0  0  0  0  0  0  0  0  0  0  0
   -4.0323    3.1753   -0.0863 N   0  0  0  0  0  0  0  0  0  0  0  0
   -5.1601    3.8525   -0.6817 C   0  0  0  0  0  0  0  0  0  0  0  0
   -4.0537    1.4719    0.3718 S   0  0  0  0  0  0  0  0  0  0  0  0
   -5.4071    0.6698   -0.2682 O   0  0  0  0  0  0  0  0  0  0  0  0
   -5.9603   -0.2528    0.6132 C   0  0  1  0  0  0  0  0  0  0  0  0
   -6.9760   -1.4397   -0.3156 S   0  0  0  0  0  0  0  0  0  0  0  0
   -5.3730   -2.0435   -0.4205 O   0  0  0  0  0  0  0  0  0  0  0  0
  1  2  1  0
  2  3  1  0
  3  4  1  0
  4  5  1  0
  5  6  1  0
  6  7  1  0
  7  8  1  0
  8  9  1  0
  9 10  1  0
 10 11  1  0
 11 12  1  0
 12 13  1  0
 13 14  1  0
 14 15  1  0
 15 16  2  3
 16 17  1  0
 11 18  1  6
  6 19  1  0
 19 20  2  0
 20 21  2  0
 21 22  2  0
 22 23  1  0
 23 24  1  0
 23 25  1  0
 25 26  1  0
 27 26  1  6
 27 28  1  0
 28 29  1  0
 27  1  1  0
 29  1  1  0
M  RAD  1   2   2
M  END
$$$$
