
     RDKit          3D

 20 19  0  0  0  0  0  0  0  0999 V2000
   -5.2333   -2.2189    1.4182 C   0  0  0  0  0  0  0  0  0  0  0  0
   -4.1776   -1.2270    1.1285 C   0  0  0  0  0  0  0  0  0  0  0  0
   -3.4495   -1.2263   -0.1543 C   0  0  0  0  0  0  0  0  0  0  0  0
   -4.3456   -1.0332   -1.3484 C   0  0  0  0  0  0  0  0  0  0  0  0
   -3.8859   -0.3294    2.0368 C   0  0  0  0  0  0  0  0  0  0  0  0
   -2.8668    0.6469    1.7870 C   0  0  0  0  0  0  0  0  0  0  0  0
   -1.9950    1.4541    1.5721 C   0  0  0  0  0  0  0  0  0  0  0  0
   -0.9428    2.3968    1.3068 C   0  0  0  0  0  0  0  0  0  0  0  0
    0.1433    1.9706    0.7252 C   0  0  0  0  0  0  0  0  0  0  0  0
    0.3969    0.6189    0.3140 C   0  0  0  0  0  0  0  0  0  0  0  0
    1.5154    0.2794   -0.2631 C   0  0  0  0  0  0  0  0  0  0  0  0
    2.5703    1.2658   -0.5200 C   0  0  0  0  0  0  0  0  0  0  0  0
    2.6078    1.4250   -2.0559 C   0  0  0  0  0  0  0  0  0  0  0  0
    2.2316    2.6468   -0.0346 C   0  0  0  0  0  0  0  0  0  0  0  0
    2.6719    3.6375   -0.6056 O   0  0  0  0  0  0  0  0  0  0  0  0
    1.7097   -1.0941   -0.6491 C   0  0  0  0  0  0  0  0  0  0  0  0
    2.7590   -1.6044   -1.2254 C   0  0  0  0  0  0  0  0  0  0  0  0
    3.8965   -0.9162   -1.5784 O   0  0  0  0  0  0  0  0  0  0  0  0
    2.7332   -3.0397   -1.5283 C   0  0  0  0  0  0  0  0  0  0  0  0
    3.6609   -3.6527   -2.0733 O   0  0  0  0  0  0  0  0  0  0  0  0
  1  2  1  0
  2  3  1  0
  3  4  1  0
  2  5  2  3
  5  6  1  0
  6  7  3  0
  7  8  1  0
  8  9  2  3
  9 10  1  0
 10 11  2  3
 11 12  1  0
 12 13  1  0
 12 14  1  0
 14 15  2  0
 11 16  1  0
 16 17  2  3
 17 18  1  0
 17 19  1  0
 19 20  2  0
M  END
$$$$
