
     RDKit          3D

 27 29  0  0  0  0  0  0  0  0999 V2000
   -1.5365    0.9605   -0.7379 O   0  0  0  0  0  0  0  0  0  0  0  0
   -1.3785   -0.1605   -0.1621 C   0  0  0  0  0  0  0  0  0  0  0  0
   -2.5622   -0.8906    0.1354 N   0  0  0  0  0  0  0  0  0  0  0  0
   -3.8251   -0.3421   -0.2178 C   0  0  0  0  0  0  0  0  0  0  0  0
   -3.9185    0.8931   -0.8473 C   0  0  0  0  0  0  0  0  0  0  0  0
   -5.1241    1.4575   -1.2051 C   0  0  0  0  0  0  0  0  0  0  0  0
   -5.1826    3.0092   -1.9924 Cl  0  0  0  0  0  0  0  0  0  0  0  0
   -6.2836    0.7649   -0.9252 C   0  0  0  0  0  0  0  0  0  0  0  0
   -6.2422   -0.4651   -0.3015 C   0  0  0  0  0  0  0  0  0  0  0  0
   -7.7200   -1.3396    0.0511 Cl  0  0  0  0  0  0  0  0  0  0  0  0
   -5.0055   -0.9904    0.0384 C   0  0  0  0  0  0  0  0  0  0  0  0
   -0.0833   -0.6229    0.1495 N   0  0  0  0  0  0  0  0  0  0  0  0
    0.1128   -1.8742    0.7935 C   0  0  0  0  0  0  0  0  0  0  0  0
    1.2625   -1.8409    1.7130 C   0  0  0  0  0  0  0  0  0  0  0  0
    1.7230   -0.4130    2.0611 C   0  0  0  0  0  0  0  0  0  0  0  0
    2.3716    0.0004    3.6314 S   0  0  0  0  0  0  0  0  0  0  0  0
    2.6844    2.2009    3.0344 S   0  0  0  0  0  0  0  0  0  0  0  0
    2.0582    1.9257    1.4348 C   0  0  0  0  0  0  0  0  0  0  0  0
    1.6465    0.5024    1.2238 C   0  0  0  0  0  0  0  0  0  0  0  0
    1.0598    0.1830   -0.1888 C   0  0  0  0  0  0  0  0  0  0  0  0
    2.0020   -0.5606   -0.9358 N   0  0  0  0  0  0  0  0  0  0  0  0
    3.2341   -0.5898   -0.7164 C   0  0  0  0  0  0  0  0  0  0  0  0
    3.9523    0.1003    0.3083 C   0  0  0  0  0  0  0  0  0  0  0  0
    5.2586   -0.0252    0.4210 C   0  0  0  0  0  0  0  0  0  0  0  0
    6.0362   -0.8507   -0.4642 C   0  0  0  0  0  0  0  0  0  0  0  0
    7.3381   -0.9523   -0.3221 C   0  0  0  0  0  0  0  0  0  0  0  0
    8.1218   -0.0801    0.9471 Cl  0  0  0  0  0  0  0  0  0  0  0  0
  1  2  2  0
  2  3  1  0
  3  4  1  0
  4  5  2  0
  5  6  1  0
  6  7  1  0
  6  8  2  0
  8  9  1  0
  9 10  1  0
  9 11  2  0
  2 12  1  0
 12 13  1  0
 13 14  1  0
 14 15  1  0
 15 16  1  0
 16 17  1  0
 17 18  2  0
 18 19  1  0
 19 20  1  0
 20 21  1  0
 21 22  2  3
 22 23  1  0
 23 24  2  3
 24 25  1  0
 25 26  2  3
 26 27  1  0
 11  4  1  0
 20 12  1  0
 15 19  2  0
M  END
$$$$
