
     RDKit          3D

 16 15  0  0  0  0  0  0  0  0999 V2000
   -4.0360    2.3006    0.0926 C   0  0  0  0  0  0  0  0  0  0  0  0
   -3.6212    0.8749    0.2190 C   0  0  0  0  0  0  0  0  0  0  0  0
   -4.1579   -0.0144   -0.4762 O   0  0  0  0  0  0  0  0  0  0  0  0
   -2.6334    0.4994    1.1074 O   0  0  0  0  0  0  0  0  0  0  0  0
   -2.2594   -0.8605    1.2069 C   0  0  0  0  0  3  0  0  0  0  0  0
   -3.0670   -1.6803    0.2615 C   0  0  0  0  0  0  0  0  0  0  0  0
   -2.9946   -2.8926    0.3843 O   0  0  0  0  0  0  0  0  0  0  0  0
   -0.8134   -0.9942    0.7810 C   0  0  0  0  0  0  0  0  0  0  0  0
   -0.6913   -0.4748   -0.6522 C   0  0  0  0  0  0  0  0  0  0  0  0
    0.7300   -0.5865   -1.1226 C   0  0  0  0  0  0  0  0  0  0  0  0
    1.6333    0.2192   -0.2398 C   0  0  0  0  0  3  0  0  0  0  0  0
    3.0592    0.0662   -0.7668 C   0  0  0  0  0  0  0  0  0  0  0  0
    4.0012    0.8702    0.1048 C   0  0  2  0  0  0  0  0  0  0  0  0
    3.5809    2.3224    0.0528 C   0  0  0  0  0  0  0  0  0  0  0  0
    5.3829    0.7218   -0.4247 C   0  0  0  0  0  0  0  0  0  0  0  0
    5.8867   -0.3714   -0.5488 O   0  0  0  0  0  0  0  0  0  0  0  0
  1  2  1  0
  2  3  2  0
  2  4  1  0
  4  5  1  0
  5  6  1  0
  6  7  2  0
  5  8  1  0
  8  9  1  0
  9 10  1  0
 10 11  1  0
 11 12  1  0
 12 13  1  0
 13 14  1  6
 13 15  1  0
 15 16  2  0
M  RAD  2   5   2  11   2
M  END
$$$$
