
     RDKit          3D

 47 51  0  0  0  0  0  0  0  0999 V2000
   -6.5690   -0.8966    1.2109 C   0  0  0  0  0  0  0  0  0  0  0  0
   -5.7367   -2.0262    0.9442 O   0  0  0  0  0  0  0  0  0  0  0  0
   -4.6754   -2.3609    1.8251 C   0  0  0  0  0  0  0  0  0  0  0  0
   -3.5165   -1.7336    1.7306 C   0  0  0  0  0  0  0  0  0  0  0  0
   -3.4166   -0.7334    0.7092 C   0  0  0  0  0  0  0  0  0  0  0  0
   -2.5214    0.0953    0.3209 C   0  0  0  0  0  0  0  0  0  0  0  0
   -1.6384   -0.4027    1.3705 C   0  0  0  0  0  0  0  0  0  0  0  0
   -2.3877    0.7419    1.7755 N   0  0  0  0  0  0  0  0  0  0  0  0
   -3.3993    1.6373    0.4196 S   0  0  0  0  0  0  0  0  0  0  0  0
   -3.7696    3.1714    0.7656 C   0  0  0  0  0  0  0  0  0  0  0  0
   -3.9112    1.1425   -0.8967 C   0  0  0  0  0  0  0  0  0  0  0  0
   -5.3984    1.2858   -0.9740 C   0  0  0  0  0  3  0  0  0  0  0  0
   -5.8548    2.6046   -0.5713 C   0  0  0  0  0  0  0  0  0  0  0  0
   -4.8443    3.6608   -0.2098 C   0  0  0  0  0  0  0  0  0  0  0  0
   -5.6502    4.7756    0.4459 C   0  0  0  0  0  0  0  0  0  0  0  0
   -6.6014    5.2039   -0.4488 F   0  0  0  0  0  0  0  0  0  0  0  0
   -3.6056    0.1234   -2.0141 C   0  0  0  0  0  0  0  0  0  0  0  0
   -2.7481   -1.0204   -2.0439 C   0  0  0  0  0  0  0  0  0  0  0  0
   -1.8601   -1.6544   -1.0358 C   0  0  0  0  0  0  0  0  0  0  0  0
   -1.4429   -1.3923    0.2893 C   0  0  0  0  0  0  0  0  0  0  0  0
   -0.6280   -2.5540    0.5012 C   0  0  0  0  0  0  0  0  0  0  0  0
    0.3627   -2.4180    1.6520 C   0  0  0  0  0  0  0  0  0  0  0  0
    1.4112   -3.9644    1.4927 S   0  0  0  0  0  0  0  0  0  0  0  0
    1.3692   -4.5259   -0.2803 C   0  0  0  0  0  0  0  0  0  0  0  0
    2.7653   -5.0445   -0.7192 C   0  0  0  0  0  0  0  0  0  0  0  0
    3.7550   -4.0501   -0.0992 C   0  0  0  0  0  0  0  0  0  0  0  0
    3.5938   -2.7607   -0.4780 C   0  0  0  0  0  0  0  0  0  0  0  0
    4.5791   -1.5104    0.1205 S   0  0  0  0  0  0  0  0  0  0  0  0
    4.3759   -1.5111    1.7668 O   0  0  0  0  0  0  0  0  0  0  0  0
    3.9563   -0.3192    2.2871 C   0  0  0  0  0  0  0  0  0  0  0  0
    2.1482   -0.4167    2.7662 S   0  0  0  0  0  0  0  0  0  0  0  0
    2.4898   -2.5422   -1.4186 C   0  0  0  0  0  0  0  0  0  0  0  0
    1.4837   -1.6608   -1.0692 C   0  0  0  0  0  0  0  0  0  0  0  0
    1.7666   -1.0774    0.2581 C   0  0  0  0  0  0  0  0  0  0  0  0
    1.3246   -1.3629    1.3812 C   0  0  0  0  0  0  0  0  0  0  0  0
   -1.3923    1.0322   -0.0225 C   0  0  0  0  0  2  0  0  0  0  0  0
   -0.5535    1.2784   -0.8589 C   0  0  0  0  0  0  0  0  0  0  0  0
    0.1271    1.4611   -1.5394 C   0  0  0  0  0  0  0  0  0  0  0  0
    1.4170    1.7969   -2.8086 S   0  0  0  0  0  0  0  0  0  0  0  0
    2.8492    1.0929   -1.8509 C   0  0  0  0  0  0  0  0  0  0  0  0
    3.6028    0.7077   -1.3478 C   0  0  0  0  0  0  0  0  0  0  0  0
    4.8860    0.0809   -0.5126 S   0  0  0  0  0  0  0  0  0  0  0  0
    6.2194    1.0747   -0.0945 C   0  0  0  0  0  0  0  0  0  0  0  0
    7.2154    1.6519    0.2203 C   0  0  0  0  0  0  0  0  0  0  0  0
    6.9725    3.2211    0.1081 C   0  0  0  0  0  0  0  0  0  0  0  0
    6.8252    4.2927    0.0313 C   0  0  0  0  0  0  0  0  0  0  0  0
    6.6256    5.8062   -0.0558 C   0  0  0  0  0  1  0  0  0  0  0  0
  1  2  1  0
  2  3  1  0
  3  4  2  3
  4  5  1  0
  5  6  2  3
  6  7  1  0
  7  8  1  0
  8  9  1  0
  9 10  1  0
  9 11  1  0
 11 12  1  0
 12 13  1  0
 13 14  1  0
 14 15  1  0
 15 16  1  0
 11 17  1  0
 17 18  2  3
 18 19  1  0
 19 20  2  3
 20 21  1  0
 21 22  1  0
 22 23  1  0
 23 24  1  0
 24 25  1  0
 25 26  1  0
 26 27  2  3
 27 28  1  0
 28 29  1  0
 29 30  1  0
 30 31  1  0
 27 32  1  0
 32 33  2  3
 33 34  1  0
 34 35  2  3
  6 36  1  0
 36 37  1  0
 37 38  3  0
 38 39  1  0
 39 40  1  0
 40 41  3  0
 41 42  1  0
 42 43  1  0
 43 44  2  3
 44 45  1  0
 45 46  3  0
 46 47  1  0
 20  7  1  0
 14 10  1  0
 35 22  1  0
 42 28  1  0
 35 31  1  0
M  RAD  3  12   2  36   3  47   2
M  END
$$$$
