
     RDKit          3D

 50 51  0  0  0  0  0  0  0  0999 V2000
   -2.9829    8.3618    0.6245 F   0  0  0  0  0  0  0  0  0  0  0  0
   -3.7236    7.6049   -0.5691 C   0  0  0  0  0  0  0  0  0  0  0  0
   -3.5578    6.4691   -0.4442 C   0  0  0  0  0  0  0  0  0  0  0  0
   -3.1463    5.2562   -0.0057 C   0  0  0  0  0  0  0  0  0  0  0  0
   -2.8288    4.1976    0.3289 C   0  0  0  0  0  0  0  0  0  0  0  0
   -2.5712    2.9895    0.5930 O   0  0  0  0  0  0  0  0  0  0  0  0
   -3.8387    2.1520    0.6795 C   0  0  0  0  0  0  0  0  0  0  0  0
   -3.2872    0.7216    0.8783 C   0  0  0  0  0  0  0  0  0  0  0  0
   -4.0425   -0.3633    0.5646 N   0  0  0  0  0  0  0  0  0  0  0  0
   -4.0727   -1.3713    1.6411 C   0  0  0  0  0  0  0  0  0  0  0  0
   -5.2113   -2.2162    1.4325 C   0  0  0  0  0  0  0  0  0  0  0  0
   -5.3262   -2.9350    0.0834 C   0  0  0  0  0  0  0  0  0  0  0  0
   -6.7699   -3.3789    0.0144 C   0  0  0  0  0  0  0  0  0  0  0  0
   -7.2963   -4.3426    0.2729 O   0  0  0  0  0  0  0  0  0  0  0  0
   -7.6150   -2.2378   -0.5880 C   0  0  0  0  0  0  0  0  0  0  0  0
   -8.4492   -1.6391    0.5766 C   0  0  0  0  0  0  0  0  0  0  0  0
   -9.4334   -2.6704    1.0711 C   0  0  0  0  0  0  0  0  0  0  0  0
   -1.9933    0.8995   -0.6837 S   0  0  0  0  0  0  0  0  0  0  0  0
   -1.2108   -0.3497   -0.9201 C   0  0  0  0  0  0  0  0  0  0  0  0
   -0.8893   -1.0860   -2.0317 O   0  0  0  0  0  0  0  0  0  0  0  0
   -0.4368   -2.3212   -1.6047 C   0  0  0  0  0  0  0  0  0  0  0  0
    0.7657   -2.3114   -0.7136 C   0  0  0  0  0  0  0  0  0  0  0  0
    1.1844   -1.0576   -0.2541 N   0  0  0  0  0  0  0  0  0  0  0  0
    1.9285   -0.8779    1.2351 S   0  0  0  0  0  0  0  0  0  0  0  0
    1.8575    0.6164    2.1601 C   0  0  0  0  0  0  0  0  0  0  0  0
    2.7804    1.4680    2.3230 O   0  0  0  0  0  0  0  0  0  0  0  0
    3.0047    2.2815    1.1983 C   0  0  0  0  0  0  0  0  0  0  0  0
    4.1945    1.7155    0.3832 C   0  0  0  0  0  0  0  0  0  0  0  0
    3.7638    1.0833   -0.7780 N   0  0  0  0  0  0  0  0  0  0  0  0
    2.7213    1.6789   -1.4631 C   0  0  0  0  0  0  0  0  0  0  0  0
    1.2913    1.2565   -1.1847 C   0  0  0  0  0  0  0  0  0  0  0  0
    0.2810    2.2292   -0.7094 C   0  0  0  0  0  0  0  0  0  0  0  0
   -0.5477    1.8883    0.4045 C   0  0  0  0  0  0  0  0  0  0  0  0
   -0.2850    0.8143    1.2277 C   0  0  0  0  0  0  0  0  0  0  0  0
   -1.0792   -0.0881    2.1293 C   0  0  0  0  0  0  0  0  0  0  0  0
   -0.2802   -1.2569    2.2568 C   0  0  0  0  0  0  0  0  0  0  0  0
    0.4528   -2.3128    2.3628 N   0  0  0  0  0  0  0  0  0  0  0  0
    0.7902   -3.4337    0.2465 C   0  0  0  0  0  0  0  0  0  0  0  0
    2.1054   -4.1293    0.2149 C   0  0  0  0  0  0  0  0  0  0  0  0
    1.9667   -5.3011   -0.7621 C   0  0  0  0  0  0  0  0  0  0  0  0
    3.3132   -2.9786   -0.5347 S   0  0  0  0  0  0  0  0  0  0  0  0
    4.4323   -2.2391    0.6277 C   0  0  0  0  0  0  0  0  0  0  0  0
    4.5980   -0.7355    0.4344 C   0  0  0  0  0  0  0  0  0  0  0  0
    4.0054   -0.2934   -0.9730 C   0  0  0  0  0  0  0  0  0  0  0  0
    5.3008   -0.4805   -1.8082 C   0  0  0  0  0  0  0  0  0  0  0  0
    6.5265   -0.2932   -1.1858 C   0  0  0  0  0  0  0  0  0  0  0  0
    6.9647    0.7693   -0.3365 C   0  0  0  0  0  0  0  0  0  0  0  0
    8.5546    0.9548   -0.1553 C   0  0  0  0  0  0  0  0  0  0  0  0
    8.9123   -0.6957   -0.3329 C   0  0  0  0  0  0  0  0  0  0  0  0
    9.1794   -2.0120   -0.4622 N   0  0  0  0  0  0  0  0  0  0  0  0
  1  2  1  0
  2  3  2  3
  3  4  1  0
  4  5  2  3
  5  6  1  0
  6  7  1  0
  7  8  1  0
  8  9  1  0
  9 10  1  0
 10 11  1  0
 11 12  1  0
 12 13  1  0
 13 14  2  0
 13 15  1  0
 15 16  1  0
 16 17  1  0
  8 18  1  0
 18 19  1  0
 19 20  1  0
 20 21  1  0
 21 22  1  0
 22 23  1  0
 23 24  1  0
 24 25  1  0
 25 26  1  0
 26 27  1  0
 27 28  1  0
 28 29  1  0
 29 30  1  0
 30 31  1  0
 31 32  1  0
 32 33  1  0
 33 34  1  0
 34 35  1  0
 35 36  1  0
 36 37  3  0
 22 38  1  0
 38 39  1  0
 39 40  1  0
 39 41  1  0
 41 42  1  0
 42 43  1  0
 43 44  1  0
 44 45  1  0
 45 46  1  0
 46 47  1  0
 47 48  1  0
 48 49  1  0
 49 50  3  0
 33 18  1  0
 44 29  1  0
M  END
$$$$
