
     RDKit          3D

 26 29  0  0  0  0  0  0  0  0999 V2000
   -2.3126    0.3624   -0.5362 C   0  0  0  0  0  0  0  0  0  0  0  0
   -3.7226    0.7924   -0.2557 C   0  0  0  0  0  3  0  0  0  0  0  0
   -4.6410    0.5745   -1.4519 C   0  0  0  0  0  0  0  0  0  0  0  0
   -6.0184    1.0458   -1.0437 C   0  0  0  0  0  0  0  0  0  0  0  0
   -6.5569    0.3365    0.1558 C   0  0  0  0  0  0  0  0  0  0  0  0
   -6.8019   -1.0129   -0.0935 O   0  0  0  0  0  0  0  0  0  0  0  0
   -5.5827    0.4973    1.2963 C   0  0  0  0  0  0  0  0  0  0  0  0
   -4.2642   -0.0837    0.8609 C   0  0  2  0  0  0  0  0  0  0  0  0
   -3.2557   -0.1028    1.9628 C   0  0  0  0  0  0  0  0  0  0  0  0
   -2.1525   -0.8349    1.5437 O   0  0  0  0  0  0  0  0  0  0  0  0
   -2.0909   -0.9663    0.1581 C   0  0  2  0  0  0  0  0  0  0  0  0
   -0.7669   -1.5701   -0.1868 C   0  0  0  0  0  0  0  0  0  0  0  0
    0.3799   -0.6568    0.2190 C   0  0  0  0  0  0  0  0  0  0  0  0
    1.7126   -1.2425   -0.1174 C   0  0  0  0  0  0  0  0  0  0  0  0
    1.9996   -2.5534    0.5410 C   0  0  0  0  0  0  0  0  0  0  0  0
    2.8064   -0.2432    0.1064 C   0  0  2  0  0  0  0  0  0  0  0  0
    4.1404   -0.8559   -0.2391 C   0  0  0  0  0  0  0  0  0  0  0  0
    5.1986    0.1869    0.0031 C   0  0  0  0  0  0  0  0  0  0  0  0
    6.5851   -0.2769   -0.2975 C   0  0  0  0  0  0  0  0  0  0  0  0
    6.7890    0.0985   -1.7313 C   0  0  0  0  0  3  0  0  0  0  0  0
    5.5686    0.9223   -2.0748 C   0  0  0  0  0  0  0  0  0  0  0  0
    5.0188    1.2684   -0.8425 O   0  0  0  0  0  0  0  0  0  0  0  0
    2.7435    0.2647    1.8539 S   0  0  0  0  0  0  0  0  0  0  0  0
    1.3701    1.4772    1.7813 C   0  0  0  0  0  0  0  0  0  0  0  0
    1.2192    1.6640   -0.0379 S   0  0  0  0  0  0  0  0  0  0  0  0
    2.6346    0.9085   -0.6342 O   0  0  0  0  0  0  0  0  0  0  0  0
  1  2  1  0
  2  3  1  0
  3  4  1  0
  4  5  1  0
  5  6  1  0
  5  7  1  0
  8  7  1  1
  8  9  1  0
  9 10  1  0
 10 11  1  0
 11 12  1  1
 12 13  1  0
 13 14  1  0
 14 15  1  0
 14 16  1  0
 16 17  1  6
 17 18  1  0
 18 19  1  0
 19 20  1  0
 20 21  1  0
 21 22  1  0
 16 23  1  0
 23 24  1  0
 24 25  1  0
 25 26  1  0
 11  1  1  0
  8  2  1  0
 26 16  1  0
 22 18  1  0
M  RAD  2   2   2  20   2
M  END
$$$$
