
     RDKit          3D

 39 40  0  0  0  0  0  0  0  0999 V2000
   11.4538   -1.0913    0.9183 C   0  0  0  0  0  0  0  0  0  0  0  0
   10.3924   -0.1825    1.5085 C   0  0  0  0  0  0  0  0  0  0  0  0
   10.9943    0.5574    2.6756 C   0  0  0  0  0  0  0  0  0  0  0  0
    9.8905    0.8317    0.5216 C   0  0  0  0  0  0  0  0  0  0  0  0
    9.2678    0.2094   -0.7031 C   0  0  0  0  0  0  0  0  0  0  0  0
    8.8133    1.3507   -1.5964 C   0  0  0  0  0  0  0  0  0  0  0  0
    8.1744    0.8018   -2.8535 C   0  0  1  0  0  0  0  0  0  0  0  0
    9.1443   -0.0547   -3.6383 C   0  0  0  0  0  0  0  0  0  0  0  0
    6.9500    0.0246   -2.4307 C   0  0  0  0  0  3  0  0  0  0  0  0
    6.2272   -0.5739   -3.6184 C   0  0  0  0  0  0  0  0  0  0  0  0
    5.0257   -1.3286   -3.1151 C   0  0  0  0  0  0  0  0  0  0  0  0
    4.1016   -0.4046   -2.3783 C   0  0  2  0  0  0  0  0  0  0  0  0
    4.7445    0.2527   -1.1823 C   0  0  0  0  0  0  0  0  0  0  0  0
    2.9011   -1.1905   -1.8784 C   0  0  0  0  0  3  0  0  0  0  0  0
    2.0009   -0.2374   -1.1487 C   0  0  0  0  0  0  0  0  0  0  0  0
    2.6994    0.4066    0.0310 C   0  0  0  0  0  0  0  0  0  0  0  0
    1.8323    1.3182    0.7256 N   0  0  0  0  0  2  0  0  0  0  0  0
    0.8147    0.5544    1.4240 C   0  0  0  0  0  0  0  0  0  0  0  0
   -0.0068   -0.2704    0.4670 C   0  0  0  0  0  0  0  0  0  0  0  0
   -0.6994    0.6312   -0.5386 C   0  0  0  0  0  0  0  0  0  0  0  0
   -1.5205   -0.1706   -1.4980 C   0  0  0  0  0  0  0  0  0  0  0  0
   -2.5988   -0.9725   -0.7658 C   0  0  0  0  0  0  0  0  0  0  0  0
   -3.4652    0.0340   -0.0524 C   0  0  0  0  0  0  0  0  0  0  0  0
   -4.5832   -0.6206    0.7200 C   0  0  0  0  0  0  0  0  0  0  0  0
   -5.3805    0.4554    1.3879 C   0  0  0  0  0  0  0  0  0  0  0  0
   -5.9622    1.4018    0.3959 C   0  0  0  0  0  0  0  0  0  0  0  0
   -7.1327    0.7850   -0.3110 C   0  0  0  0  0  0  0  0  0  0  0  0
   -7.7668    1.6186   -1.0984 C   0  0  0  0  0  0  0  0  0  0  0  0
   -8.9520    1.1553   -1.8700 C   0  0  0  0  0  0  0  0  0  0  0  0
   -8.8044   -0.2388   -2.3761 C   0  0  0  0  0  0  0  0  0  0  0  0
   -8.2215   -1.1924   -1.3940 C   0  0  0  0  0  0  0  0  0  0  0  0
   -7.5919   -0.6027   -0.1893 C   0  0  0  0  0  0  0  0  0  0  0  0
   -8.2449   -0.9112    1.1156 C   0  0  0  0  0  0  0  0  0  0  0  0
   -7.7696    0.1574    2.1018 C   0  0  0  0  0  0  0  0  0  0  0  0
   -6.3152   -0.0300    2.4423 C   0  0  0  0  0  0  0  0  0  0  0  0
   -5.9797    0.6661    3.7549 C   0  0  0  0  0  0  0  0  0  0  0  0
   -4.5592    0.3611    4.1701 C   0  0  0  0  0  0  0  0  0  0  0  0
   -4.2994   -1.0979    4.3748 C   0  0  0  0  0  0  0  0  0  0  0  0
   -5.5743   -1.8736    5.9020 I   0  0  0  0  0  0  0  0  0  0  0  0
  1  2  1  0
  2  3  1  0
  2  4  1  0
  4  5  1  0
  5  6  1  0
  6  7  1  0
  7  8  1  1
  7  9  1  0
  9 10  1  0
 10 11  1  0
 11 12  1  0
 12 13  1  1
 12 14  1  0
 14 15  1  0
 15 16  1  0
 16 17  1  0
 17 18  1  0
 18 19  1  0
 19 20  1  0
 20 21  1  0
 21 22  1  0
 22 23  1  0
 23 24  1  0
 24 25  1  0
 25 26  1  0
 26 27  1  0
 27 28  2  0
 28 29  1  0
 29 30  1  0
 30 31  1  0
 31 32  1  0
 32 33  1  0
 33 34  1  0
 34 35  1  0
 35 36  1  0
 36 37  1  0
 37 38  1  0
 38 39  1  0
 35 25  1  0
 32 27  1  0
M  CHG  1  17   1
M  RAD  3   9   2  14   2  17   3
M  END
$$$$
