
     RDKit          3D

 22 24  0  0  0  0  0  0  0  0999 V2000
    3.8384    0.0211   -1.8550 P   0  0  0  0  0  0  0  0  0  0  0  0
    4.2127    0.6298   -3.6235 C   0  0  0  0  0  0  0  0  0  0  0  0
    3.1656   -0.1121   -4.2875 N   0  0  0  0  0  0  0  0  0  0  0  0
    2.3937   -0.8464   -3.6807 C   0  0  0  0  0  0  0  0  0  0  0  0
    2.5233   -0.9807   -2.2837 C   0  0  0  0  0  0  0  0  0  0  0  0
    1.6309   -1.7697   -1.3156 C   0  0  0  0  0  0  0  0  0  0  0  0
    0.5318   -0.8111   -0.8912 C   0  0  0  0  0  0  0  0  0  0  0  0
   -0.4000   -1.3016    0.1008 C   0  0  0  0  0  0  0  0  0  0  0  0
   -1.1912   -2.4840   -0.3245 C   0  0  0  0  0  0  0  0  0  0  0  0
   -2.6173   -2.0777   -0.7401 C   0  0  0  0  0  0  0  0  0  0  0  0
   -3.4961   -2.2691    0.4656 C   0  0  0  0  0  0  0  0  0  0  0  0
   -4.1139   -0.8938    0.8081 C   0  0  0  0  0  0  0  0  0  0  0  0
   -3.0504   -0.0854    1.2179 C   0  0  0  0  0  0  0  0  0  0  0  0
   -2.3070    0.4919    1.5172 C   0  0  0  0  0  0  0  0  0  0  0  0
   -1.1850    1.3569    1.9538 C   0  0  0  0  0  0  0  0  0  0  0  0
   -1.5713    2.7250    1.7819 C   0  0  0  0  0  0  0  0  0  0  0  0
   -0.6113    3.6988    1.8969 C   0  0  0  0  0  0  0  0  0  0  0  0
    0.6904    3.3626    2.1690 C   0  0  0  0  0  0  0  0  0  0  0  0
    1.0626    1.9725    2.3474 C   0  0  0  0  0  0  0  0  0  0  0  0
    0.0701    1.0506    2.2272 C   0  0  0  0  0  0  0  0  0  0  0  0
    0.3280   -0.4186    2.3569 C   0  0  0  0  0  0  0  0  0  0  0  0
    0.0960   -1.2590    1.4242 C   0  0  0  0  0  0  0  0  0  0  0  0
  1  2  1  0
  2  3  2  0
  3  4  1  0
  4  5  2  0
  5  6  1  0
  6  7  1  0
  7  8  1  0
  8  9  1  0
  9 10  1  0
 10 11  1  0
 11 12  1  0
 12 13  1  0
 13 14  3  0
 14 15  1  0
 15 16  2  0
 16 17  1  0
 17 18  2  0
 18 19  1  0
 19 20  2  0
 20 21  1  0
 21 22  2  3
  5  1  1  0
 22  8  1  0
 20 15  1  0
M  END
$$$$
