
     RDKit          3D

 21 22  0  0  0  0  0  0  0  0999 V2000
   -4.6016    1.5345    0.9483 C   0  0  0  0  0  0  0  0  0  0  0  0
   -5.1362    0.1771    1.1619 C   0  0  0  0  0  0  0  0  0  0  0  0
   -4.6184   -1.0254    0.9873 C   0  0  0  0  0  0  0  0  0  0  0  0
   -3.2679   -1.2977    0.4950 C   0  0  0  0  0  0  0  0  0  0  0  0
   -2.1936   -0.5281    0.5119 C   0  0  0  0  0  0  0  0  0  0  0  0
   -0.9961   -1.0388   -0.0362 N   0  0  0  0  0  0  0  0  0  0  0  0
   -0.8873   -2.2685   -0.5763 C   0  0  0  0  0  0  0  0  0  0  0  0
   -1.9731   -3.2928   -0.6956 C   0  0  0  0  0  0  0  0  0  0  0  0
    0.4203   -2.3762   -0.9884 C   0  0  0  0  0  0  0  0  0  0  0  0
    1.1107   -1.2174   -0.7022 C   0  0  0  0  0  0  0  0  0  0  0  0
    0.1787   -0.3850   -0.0954 C   0  0  0  0  0  0  0  0  0  0  0  0
    0.3795    0.9629    0.4067 C   0  0  0  0  0  0  0  0  0  0  0  0
    1.5649    1.5144    0.3022 C   0  0  0  0  0  0  0  0  0  0  0  0
    2.6404    0.7605   -0.3124 C   0  0  0  0  0  0  0  0  0  0  0  0
    3.8508    1.2745   -0.4394 C   0  0  0  0  0  0  0  0  0  0  0  0
    5.1064    0.2635   -1.2111 S   0  0  0  0  0  0  0  0  0  0  0  0
    4.4522   -1.3376   -1.6908 C   0  0  0  0  0  0  0  0  0  0  0  0
    4.0921    2.6059    0.0445 C   0  0  0  0  0  0  0  0  0  0  0  0
    5.1786    3.2089   -0.0109 O   0  0  0  0  0  0  0  0  0  0  0  0
   -2.1428    0.8210    1.0568 C   0  0  0  0  0  0  0  0  0  0  0  0
   -3.1577    1.6443    1.2224 C   0  0  0  0  0  0  0  0  0  0  0  0
  1  2  1  0
  2  3  2  0
  3  4  1  0
  4  5  2  0
  5  6  1  0
  6  7  1  0
  7  8  1  0
  7  9  2  0
  9 10  1  0
 10 11  2  0
 11 12  1  0
 12 13  2  3
 13 14  1  0
 14 15  2  3
 15 16  1  0
 16 17  1  0
 15 18  1  0
 18 19  2  0
  5 20  1  0
 20 21  2  0
 21  1  1  0
 11  6  1  0
M  END
$$$$
