
     RDKit          3D

 13 12  0  0  0  0  0  0  0  0999 V2000
    3.0101   -1.6973    0.0322 F   0  0  0  0  0  0  0  0  0  0  0  0
    2.3388   -0.7112    0.5795 O   0  0  0  0  0  0  0  0  0  0  0  0
    2.5158    0.4422   -0.1879 C   0  0  0  0  0  0  0  0  0  0  0  0
    1.7830    1.5304    0.4043 N   0  0  0  0  0  0  0  0  0  0  0  0
    2.0775    2.6725    0.1785 O   0  0  0  0  0  0  0  0  0  0  0  0
    1.8858    0.1759   -1.5414 C   0  0  0  0  0  0  0  0  0  0  0  0
    0.4591   -0.1117   -1.3144 C   0  0  0  0  0  0  0  0  0  0  0  0
   -0.1196   -0.1235   -0.1287 C   0  0  0  0  0  0  0  0  0  0  0  0
   -1.5358   -0.4224   -0.0436 C   0  0  0  0  0  0  0  0  0  0  0  0
   -2.2379   -0.4606    1.1465 O   0  0  0  0  0  0  0  0  0  0  0  0
   -3.5959   -0.7496    1.2031 N   0  0  0  0  0  0  0  0  0  0  0  0
   -4.4063    0.1170    0.7034 C   0  0  0  0  0  0  0  0  0  0  0  0
   -2.1747   -0.6616   -1.0954 O   0  0  0  0  0  0  0  0  0  0  0  0
  1  2  1  0
  2  3  1  0
  3  4  1  0
  4  5  2  0
  3  6  1  0
  6  7  1  0
  7  8  2  3
  8  9  1  0
  9 10  1  0
 10 11  1  0
 11 12  2  0
  9 13  2  0
M  END
$$$$
