
     RDKit          3D

 74 81  0  0  0  0  0  0  0  0999 V2000
   -9.2947    2.6421    0.0501 C   0  0  0  0  0  0  0  0  0  0  0  0
   -8.1405    3.3085    0.7649 C   0  0  0  0  0  0  0  0  0  0  0  0
   -7.0853    2.2604    1.0439 C   0  0  0  0  0  0  0  0  0  0  0  0
   -7.4856    4.3761   -0.0842 C   0  0  0  0  0  0  0  0  0  0  0  0
   -6.7392    3.7806   -1.2560 C   0  0  0  0  0  0  0  0  0  0  0  0
   -7.3261    2.4925   -1.7241 C   0  0  0  0  0  0  0  0  0  0  0  0
   -6.3728    1.3275   -1.5979 C   0  0  1  0  0  0  0  0  0  0  0  0
   -6.8681    0.0945   -2.2760 C   0  0  0  0  0  0  0  0  0  0  0  0
   -4.9566    1.6884   -1.9707 C   0  0  0  0  0  3  0  0  0  0  0  0
   -4.5298    2.8662   -1.1219 C   0  0  0  0  0  0  0  0  0  0  0  0
   -3.5728    2.4642   -0.0263 C   0  0  0  0  0  0  0  0  0  0  0  0
   -4.0169    3.0484    1.3049 C   0  0  0  0  0  0  0  0  0  0  0  0
   -4.1406    1.9829    2.3682 C   0  0  0  0  0  3  0  0  0  0  0  0
   -5.0778    0.8769    1.9874 C   0  0  0  0  0  0  0  0  0  0  0  0
   -6.3150    0.8418    2.8575 C   0  0  0  0  0  0  0  0  0  0  0  0
   -7.5462    1.3319    2.1430 C   0  0  2  0  0  0  0  0  0  0  0  0
   -8.3547    0.2360    1.5350 C   0  0  0  0  0  0  0  0  0  0  0  0
   -8.6273   -0.8763    2.4802 C   0  0  0  0  0  0  0  0  0  0  0  0
   -9.6217   -1.7308    2.3260 C   0  0  0  0  0  0  0  0  0  0  0  0
   -9.8908   -2.7755    3.1990 O   0  0  0  0  0  0  0  0  0  0  0  0
  -10.5126   -1.5776    1.1553 C   0  0  0  0  0  0  0  0  0  0  0  0
  -11.9827   -1.7451    1.4419 C   0  0  0  0  0  0  0  0  0  0  0  0
  -10.2962   -0.4623    0.3770 O   0  0  0  0  0  0  0  0  0  0  0  0
  -10.6673   -1.2371   -0.7437 C   0  0  0  0  0  0  0  0  0  0  0  0
  -10.0996   -2.4465   -0.0109 C   0  0  0  0  0  0  0  0  0  0  0  0
   -8.6131   -2.5098   -0.1922 C   0  0  0  0  0  0  0  0  0  0  0  0
   -8.2484   -1.8484   -1.5082 C   0  0  0  0  0  0  0  0  0  0  0  0
   -6.9542   -1.0778   -1.3274 C   0  0  1  0  0  0  0  0  0  0  0  0
   -5.8463   -1.8996   -1.3737 O   0  0  0  0  0  0  0  0  0  0  0  0
   -5.9444   -2.7709   -0.2714 C   0  0  0  0  0  0  0  0  0  0  0  0
   -4.9836   -2.4517    0.6782 O   0  0  0  0  0  0  0  0  0  0  0  0
   -5.4098   -1.5302    1.6029 C   0  0  0  0  0  0  0  0  0  0  0  0
   -4.4079   -0.4622    1.8987 C   0  0  0  0  0  0  0  0  0  0  0  0
   -3.4899   -0.4413    0.7964 O   0  0  0  0  0  0  0  0  0  0  0  0
   -2.7684   -1.5848    0.5419 C   0  0  0  0  0  0  0  0  0  0  0  0
   -1.4838   -1.6578    0.3045 C   0  0  0  0  0  3  0  0  0  0  0  0
   -0.6740   -0.4294    0.2951 C   0  0  0  0  0  0  0  0  0  0  0  0
   -0.6365    0.1534    1.6704 C   0  0  0  0  0  0  0  0  0  0  0  0
    0.7937    0.1552    2.1187 C   0  0  0  0  0  0  0  0  0  0  0  0
    1.6502   -0.0265    0.8811 C   0  0  0  0  0  0  0  0  0  0  0  0
    0.7466   -0.6649   -0.1339 C   0  0  1  0  0  0  0  0  0  0  0  0
    1.3122   -2.0124    0.2530 C   0  0  2  0  0  0  0  0  0  0  0  0
    0.4709   -2.6942    1.2980 C   0  0  0  0  0  0  0  0  0  0  0  0
    2.4929   -1.2721    0.8869 C   0  0  0  0  0  0  0  0  0  0  0  0
    2.7415   -1.7000    2.3281 C   0  0  0  0  0  0  0  0  0  0  0  0
    3.4369   -0.5572    3.0278 C   0  0  0  0  0  0  0  0  0  0  0  0
    4.7476   -0.2432    2.3234 C   0  0  0  0  0  0  0  0  0  0  0  0
    5.4145   -1.5493    1.9528 C   0  0  0  0  0  0  0  0  0  0  0  0
    4.4951    0.5458    1.0478 C   0  0  0  0  0  3  0  0  0  0  0  0
    3.4512    1.4536    1.2436 O   0  0  0  0  0  0  0  0  0  0  0  0
    2.3737    1.1986    0.4267 C   0  0  0  0  0  3  0  0  0  0  0  0
    2.7557    1.1324   -0.8908 O   0  0  0  0  0  0  0  0  0  0  0  0
    2.6229   -0.1145   -1.4738 C   0  0  0  0  0  0  0  0  0  0  0  0
    3.0701   -0.0646   -2.9182 C   0  0  0  0  0  0  0  0  0  0  0  0
    4.5204    0.3549   -3.0327 C   0  0  0  0  0  0  0  0  0  0  0  0
    5.3394   -0.5531   -2.3554 O   0  0  0  0  0  0  0  0  0  0  0  0
    6.6496   -0.1245   -2.4917 C   0  0  0  0  0  0  0  0  0  0  0  0
    7.0416   -0.0666   -3.8651 N   0  0  0  0  0  0  0  0  0  0  0  0
    8.3802    0.3633   -4.0837 C   0  0  0  0  0  0  0  0  0  0  0  0
    8.6933    1.7612   -3.6152 C   0  0  0  0  0  0  0  0  0  0  0  0
   10.0550    1.2158   -3.1608 C   0  0  0  0  0  0  0  0  0  0  0  0
   11.0271    1.3533   -4.3116 C   0  0  0  0  0  0  0  0  0  0  0  0
    9.4028   -0.1649   -3.1212 C   0  0  1  0  0  0  0  0  0  0  0  0
    8.8635   -0.4318   -1.7784 C   0  0  0  0  0  0  0  0  0  0  0  0
    9.3367    0.1838   -0.6945 C   0  0  0  0  0  0  0  0  0  0  0  0
   10.4498    1.1821   -0.8149 C   0  0  0  0  0  3  0  0  0  0  0  0
   11.7420    0.3857   -0.9567 C   0  0  0  0  0  0  0  0  0  0  0  0
   11.8597   -0.4593    0.3000 C   0  0  0  0  0  0  0  0  0  0  0  0
   13.1288   -1.3036    0.2629 C   0  0  1  0  0  0  0  0  0  0  0  0
   13.0137   -2.1917   -0.9702 C   0  0  0  0  0  0  0  0  0  0  0  0
   14.3350   -0.4285    0.0713 C   0  0  0  0  0  3  0  0  0  0  0  0
   14.4995    0.5773    1.1709 C   0  0  0  0  0  0  0  0  0  0  0  0
   13.3117    1.4871    1.2590 C   0  0  0  0  0  0  0  0  0  0  0  0
   14.7560   -0.1402    2.4794 C   0  0  0  0  0  0  0  0  0  0  0  0
  1  2  1  0
  2  3  1  0
  2  4  1  0
  4  5  1  0
  5  6  1  0
  7  6  1  6
  7  8  1  0
  7  9  1  0
  9 10  1  0
 10 11  1  0
 11 12  1  0
 12 13  1  0
 13 14  1  0
 14 15  1  0
 16 15  1  6
 16 17  1  0
 17 18  1  0
 18 19  2  3
 19 20  1  0
 19 21  1  0
 21 22  1  0
 21 23  1  0
 23 24  1  0
 24 25  1  0
 25 26  1  0
 26 27  1  0
 28 27  1  6
 28 29  1  0
 29 30  1  0
 30 31  1  0
 31 32  1  0
 32 33  1  0
 33 34  1  0
 34 35  1  0
 35 36  2  3
 36 37  1  0
 37 38  1  0
 38 39  1  0
 39 40  1  0
 40 41  1  0
 41 42  1  0
 42 43  1  1
 42 44  1  0
 44 45  1  0
 45 46  1  0
 46 47  1  0
 47 48  1  0
 47 49  1  0
 49 50  1  0
 50 51  1  0
 51 52  1  0
 52 53  1  0
 53 54  1  0
 54 55  1  0
 55 56  1  0
 56 57  1  0
 57 58  1  0
 58 59  1  0
 59 60  1  0
 60 61  1  0
 61 62  1  0
 61 63  1  0
 63 64  1  1
 64 65  2  3
 65 66  1  0
 66 67  1  0
 67 68  1  0
 68 69  1  0
 69 70  1  6
 69 71  1  0
 71 72  1  0
 72 73  1  0
 72 74  1  0
 16  3  1  0
 28  8  1  0
 33 14  1  0
 25 21  1  0
 41 37  1  1
 44 40  1  0
 51 40  1  0
 63 59  1  0
M  RAD  7   9   2  13   2  36   2  49   2  51   2  66   2  71   2
M  END
$$$$
