
     RDKit          3D

 24 25  0  0  0  0  0  0  0  0999 V2000
   -2.2553    0.1936   -2.0125 C   0  0  0  0  0  0  0  0  0  0  0  0
   -1.9111    0.6819   -0.6101 C   0  0  1  0  0  0  0  0  0  0  0  0
   -3.0509    1.6078   -0.2015 C   0  0  0  0  0  0  0  0  0  0  0  0
   -4.3792    0.8943   -0.1986 C   0  0  2  0  0  0  0  0  0  0  0  0
   -5.2791    1.7012    0.5161 O   0  0  0  0  0  0  0  0  0  0  0  0
   -4.3369   -0.4331    0.5064 C   0  0  2  0  0  0  0  0  0  0  0  0
   -4.3082   -0.2278    1.8778 O   0  0  0  0  0  0  0  0  0  0  0  0
   -3.1488   -1.2732    0.1317 C   0  0  1  0  0  0  0  0  0  0  0  0
   -3.2578   -1.6813   -1.2017 O   0  0  0  0  0  0  0  0  0  0  0  0
   -1.9082   -0.4560    0.3795 C   0  0  1  0  0  0  0  0  0  0  0  0
   -0.6988   -1.2327    0.3524 N   0  0  0  0  0  0  0  0  0  0  0  0
    0.3935   -0.3716    0.7855 C   0  0  0  0  0  3  0  0  0  0  0  0
    1.1259    0.1350   -0.4307 C   0  0  0  0  0  0  0  0  0  0  0  0
    1.5029    1.5859   -0.3364 C   0  0  1  0  0  0  0  0  0  0  0  0
    0.7207    2.3050    0.5481 O   0  0  0  0  0  0  0  0  0  0  0  0
    2.9867    1.7920   -0.1105 C   0  0  0  0  0  0  0  0  0  0  0  0
    3.6743    1.0264   -1.0323 O   0  0  0  0  0  0  0  0  0  0  0  0
    4.7005    0.3923   -0.5499 O   0  0  0  0  0  0  0  0  0  0  0  0
    4.4183   -0.4743    0.4811 C   0  0  1  0  0  0  0  0  0  0  0  0
    4.5286    0.1398    1.7392 O   0  0  0  0  0  0  0  0  0  0  0  0
    3.0825   -1.1447    0.3860 C   0  0  2  0  0  0  0  0  0  0  0  0
    3.3173   -2.5290    0.3620 O   0  0  0  0  0  0  0  0  0  0  0  0
    2.2841   -0.7531   -0.8234 C   0  0  1  0  0  0  0  0  0  0  0  0
    1.7990   -1.8783   -1.5044 O   0  0  0  0  0  0  0  0  0  0  0  0
  2  1  1  6
  2  3  1  0
  3  4  1  0
  4  5  1  1
  4  6  1  0
  6  7  1  1
  6  8  1  0
  8  9  1  6
  8 10  1  0
 10 11  1  6
 11 12  1  0
 12 13  1  0
 13 14  1  0
 14 15  1  1
 14 16  1  0
 16 17  1  0
 17 18  1  0
 18 19  1  0
 19 20  1  1
 19 21  1  0
 21 22  1  6
 21 23  1  0
 23 24  1  1
 10  2  1  0
 23 13  1  0
M  RAD  1  12   2
M  END
$$$$
