
     RDKit          3D

 29 32  0  0  0  0  0  0  0  0999 V2000
    2.6587   -1.5345   -0.8088 C   0  0  0  0  0  0  0  0  0  0  0  0
    2.8992   -2.0869    0.4997 O   0  0  0  0  0  0  0  0  0  0  0  0
    2.1044   -3.1525    0.8686 C   0  0  0  0  0  0  0  0  0  0  0  0
    1.1099   -2.9474    1.6927 C   0  0  0  0  0  0  0  0  0  0  0  0
    0.8399   -1.6393    2.2121 C   0  0  0  0  0  0  0  0  0  0  0  0
    0.0831   -0.7042    1.7116 C   0  0  0  0  0  0  0  0  0  0  0  0
   -0.0522    0.8422    2.6125 S   0  0  0  0  0  0  0  0  0  0  0  0
    0.7596    2.1024    1.5692 C   0  0  0  0  0  0  0  0  0  0  0  0
    2.0298    1.8935    1.4074 C   0  0  0  0  0  0  0  0  0  0  0  0
    2.9714    2.6947    0.6336 C   0  0  0  0  0  0  0  0  0  0  0  0
    3.7248    2.0939   -0.3118 C   0  0  0  0  0  0  0  0  0  0  0  0
    4.8796    2.9555   -1.2946 Cl  0  0  0  0  0  0  0  0  0  0  0  0
    3.5603    0.6737   -0.4812 C   0  0  0  0  0  0  0  0  0  0  0  0
    2.4956   -0.0348   -0.6711 C   0  0  0  0  0  0  0  0  0  0  0  0
    1.1080    0.4631   -0.7793 C   0  0  0  0  0  0  0  0  0  0  0  0
   -0.6364   -0.8779    0.4672 C   0  0  0  0  0  0  0  0  0  0  0  0
    0.0947   -0.6269   -0.8021 C   0  0  0  0  0  0  0  0  0  0  0  0
    0.4503   -1.7853   -1.5282 O   0  0  0  0  0  0  0  0  0  0  0  0
   -0.5245   -1.5435   -2.4509 C   0  0  0  0  0  0  0  0  0  0  0  0
   -0.9452   -0.4509   -1.8678 C   0  0  0  0  0  0  0  0  0  0  0  0
   -1.8312    0.7237   -1.7583 C   0  0  0  0  0  0  0  0  0  0  0  0
   -3.0500    0.5836   -2.6398 C   0  0  0  0  0  0  0  0  0  0  0  0
   -3.9303   -0.5035   -2.0843 C   0  0  0  0  0  0  0  0  0  0  0  0
   -4.3216   -0.1951   -0.7192 N   0  0  0  0  0  0  0  0  0  0  0  0
   -4.4158    1.1468   -0.3256 C   0  0  0  0  0  0  0  0  0  0  0  0
   -4.0613    1.5973    0.8451 C   0  0  0  0  0  0  0  0  0  0  0  0
   -1.9193   -0.2711    0.4609 O   0  0  0  0  0  0  0  0  0  0  0  0
   -2.5515   -0.1374    1.6902 C   0  0  0  0  0  0  0  0  0  0  0  0
   -3.5299    0.7210    1.8524 C   0  0  0  0  0  0  0  0  0  0  0  0
  1  2  1  0
  2  3  1  0
  3  4  2  3
  4  5  1  0
  5  6  2  3
  6  7  1  0
  7  8  1  0
  8  9  2  3
  9 10  1  0
 10 11  2  3
 11 12  1  0
 11 13  1  0
 13 14  2  3
 14 15  1  0
  6 16  1  0
 16 17  1  0
 17 18  1  0
 18 19  1  0
 19 20  2  0
 20 21  1  0
 21 22  1  0
 22 23  1  0
 23 24  1  0
 24 25  1  0
 25 26  2  3
 16 27  1  0
 27 28  1  0
 28 29  2  3
 14  1  1  0
 17 15  1  0
 20 17  1  0
 29 26  1  0
M  END
$$$$
