
     RDKit          3D

 59 58  0  0  0  0  0  0  0  0999 V2000
   -5.3535    1.6223   -4.9484 C   0  0  0  0  0  0  0  0  0  0  0  0
   -6.6980    1.1215   -4.5424 C   0  0  0  0  0  0  0  0  0  0  0  0
   -6.9145    0.2896   -3.3663 C   0  0  1  0  0  0  0  0  0  0  0  0
   -6.2145   -1.0756   -3.5016 C   0  0  0  0  0  0  0  0  0  0  0  0
   -6.2626    0.9590   -2.0623 C   0  0  2  0  0  0  0  0  0  0  0  0
   -4.9412    0.9647   -2.4356 N   0  0  0  0  0  0  0  0  0  0  0  0
   -3.6812    1.1278   -2.2775 C   0  0  0  0  0  0  0  0  0  0  0  0
   -3.2289    1.5314   -1.0669 O   0  0  0  0  0  0  0  0  0  0  0  0
   -2.5053    0.9328   -3.2198 C   0  0  1  0  0  0  0  0  0  0  0  0
   -1.5549    0.1034   -2.4338 N   0  0  0  0  0  0  0  0  0  0  0  0
   -0.7740    0.6288   -1.3445 C   0  0  0  0  0  0  0  0  0  0  0  0
   -0.6670    1.6039   -0.8340 O   0  0  0  0  0  0  0  0  0  0  0  0
    0.0596   -0.6817   -0.8292 C   0  0  1  0  0  0  0  0  0  0  0  0
    1.3869   -0.2068   -0.6934 N   0  0  0  0  0  0  0  0  0  0  0  0
    1.9018    0.7237   -1.6534 C   0  0  0  0  0  0  0  0  0  0  0  0
    1.1591    1.1417   -2.5797 O   0  0  0  0  0  0  0  0  0  0  0  0
    3.3502    1.1001   -1.4758 C   0  0  0  0  0  0  0  0  0  0  0  0
    3.8427    0.3968   -0.4217 N   0  0  0  0  0  0  0  0  0  0  0  0
    4.1311   -0.0035    0.7697 C   0  0  0  0  0  0  0  0  0  0  0  0
    3.8476    0.6200    1.7785 O   0  0  0  0  0  0  0  0  0  0  0  0
    4.8793   -1.3355    0.8122 C   0  0  2  0  0  0  0  0  0  0  0  0
    4.1090   -2.2192    1.8029 C   0  0  0  0  0  0  0  0  0  0  0  0
    6.1196   -1.1344    1.1109 N   0  0  0  0  0  0  0  0  0  0  0  0
    7.4100   -0.9875    1.4436 C   0  0  0  0  0  0  0  0  0  0  0  0
    8.0192   -1.9371    2.0029 O   0  0  0  0  0  0  0  0  0  0  0  0
    8.1697    0.3194    1.1032 C   0  0  2  0  0  0  0  0  0  0  0  0
    9.1745   -0.2467    0.0630 C   0  0  0  0  0  0  0  0  0  0  0  0
    9.8202   -1.3163    0.7732 C   0  0  0  0  0  0  0  0  0  0  0  0
   10.6558   -1.3475    1.6829 C   0  0  0  0  0  0  0  0  0  0  0  0
   11.3199   -0.2524    2.4354 C   0  0  0  0  0  0  0  0  0  0  0  0
   12.7213    0.0270    2.5032 S   0  0  0  0  0  0  0  0  0  0  0  0
   13.8348   -0.9397    3.1252 O   0  0  0  0  0  0  0  0  0  0  0  0
   13.5481    1.0259    1.3393 C   0  0  0  0  0  0  0  0  0  0  0  0
   12.9678    1.0982    0.0902 C   0  0  0  0  0  0  0  0  0  0  0  0
    8.8892    0.6619    2.3447 N   0  0  0  0  0  0  0  0  0  0  0  0
    8.2064    0.2695    3.5591 C   0  0  0  0  0  0  0  0  0  0  0  0
    8.8178    0.6092    4.7982 N   0  0  0  0  0  0  0  0  0  0  0  0
    7.1347   -0.3070    3.5107 O   0  0  0  0  0  0  0  0  0  0  0  0
   -0.6522   -1.3202    0.2027 C   0  0  0  0  0  0  0  0  0  0  0  0
   -0.9263   -0.6127    1.4180 C   0  0  0  0  0  0  0  0  0  0  0  0
    0.0641   -0.2188    2.1928 O   0  0  0  0  0  0  0  0  0  0  0  0
   -2.3185   -0.3590    1.7972 C   0  0  0  0  0  0  0  0  0  0  0  0
   -2.9927   -0.2830   -4.2112 C   0  0  0  0  0  0  0  0  0  0  0  0
   -1.8303   -0.4512   -5.0920 C   0  0  0  0  0  0  0  0  0  0  0  0
   -0.5908   -0.8721   -4.4724 C   0  0  0  0  0  0  0  0  0  0  0  0
    0.4307   -0.9415   -5.6404 C   0  0  0  0  0  0  0  0  0  0  0  0
   -6.2966   -0.3259   -1.0700 C   0  0  0  0  0  0  0  0  0  0  0  0
   -8.0273   -0.7017   -0.8281 S   0  0  0  0  0  0  0  0  0  0  0  0
   -8.2445   -2.0085   -0.2398 O   0  0  0  0  0  0  0  0  0  0  0  0
   -8.7143   -0.7105   -2.1979 O   0  0  0  0  0  0  0  0  0  0  0  0
   -8.7454    0.6367    0.0111 N   0  0  0  0  0  0  0  0  0  0  0  0
   -8.6016    0.3965    1.4002 N   0  0  0  0  0  0  0  0  0  0  0  0
   -9.0156   -0.8679    1.8397 N   0  0  0  0  0  0  0  0  0  0  0  0
  -10.3461   -1.1924    1.3914 C   0  0  0  0  0  3  0  0  0  0  0  0
  -11.4043   -0.5982    2.1798 N   0  0  0  0  0  0  0  0  0  0  0  0
  -10.9910   -0.1725    3.4549 C   0  0  0  0  0  0  0  0  0  0  0  0
  -12.1354    0.3770    4.2011 N   0  0  0  0  0  0  0  0  0  0  0  0
  -12.8818    1.5300    3.7131 C   0  0  0  0  0  0  0  0  0  0  0  0
  -12.4609    2.0087    2.5870 O   0  0  0  0  0  0  0  0  0  0  0  0
  1  2  1  0
  2  3  1  0
  3  4  1  6
  3  5  1  0
  5  6  1  0
  6  7  1  0
  7  8  2  0
  7  9  1  0
  9 10  1  0
 10 11  1  0
 11 12  2  0
 11 13  1  0
 13 14  1  0
 14 15  1  0
 15 16  2  0
 15 17  1  0
 17 18  1  0
 18 19  1  0
 19 20  2  0
 19 21  1  0
 21 22  1  1
 21 23  1  0
 23 24  1  0
 24 25  2  0
 24 26  1  0
 26 27  1  6
 27 28  1  0
 28 29  2  3
 29 30  1  0
 30 31  1  0
 31 32  1  0
 31 33  1  0
 33 34  2  0
 26 35  1  0
 35 36  1  0
 36 37  1  0
 36 38  2  0
 13 39  1  1
 39 40  1  0
 40 41  1  0
 40 42  1  0
  9 43  1  6
 43 44  1  0
 44 45  1  0
 45 46  1  0
  5 47  1  1
 47 48  1  0
 48 49  2  0
 48 50  2  0
 48 51  1  0
 51 52  1  0
 52 53  1  0
 53 54  1  0
 54 55  1  0
 55 56  1  0
 56 57  1  0
 57 58  1  0
 58 59  2  0
M  RAD  1  54   2
M  END
$$$$
