
     RDKit          3D

 58 64  0  0  0  0  0  0  0  0999 V2000
   -0.3107    1.4537   -0.3770 C   0  0  0  0  0  0  0  0  0  0  0  0
   -0.4245    0.4533    0.5672 O   0  0  0  0  0  0  0  0  0  0  0  0
   -0.8316   -0.8493    0.3553 C   0  0  0  0  0  0  0  0  0  0  0  0
   -0.1423   -1.8066    0.7841 O   0  0  0  0  0  0  0  0  0  0  0  0
   -2.0679   -1.1255   -0.3699 C   0  0  0  0  0  3  0  0  0  0  0  0
   -2.9021   -2.2421    0.1279 C   0  0  0  0  0  0  0  0  0  0  0  0
   -2.6312   -3.5812   -0.4767 C   0  0  0  0  0  0  0  0  0  0  0  0
   -1.7168   -4.4335    0.3754 C   0  0  0  0  0  3  0  0  0  0  0  0
   -2.4634   -4.9051    1.4348 O   0  0  0  0  0  0  0  0  0  0  0  0
   -2.1588   -4.2822    2.6398 C   0  0  0  0  0  0  0  0  0  0  0  0
   -2.1005   -2.8101    2.4298 C   0  0  0  0  0  3  0  0  0  0  0  0
   -3.2165   -2.2512    1.5783 C   0  0  2  0  0  0  0  0  0  0  0  0
   -4.4964   -2.9821    1.9146 C   0  0  0  0  0  3  0  0  0  0  0  0
   -5.6102   -2.6422    1.0903 N   0  0  0  0  0  0  0  0  0  0  0  0
   -5.5858   -2.5159   -0.1613 N   0  0  0  0  0  0  0  0  0  0  0  0
   -6.6643   -2.1885   -0.9478 N   0  0  0  0  0  0  0  0  0  0  0  0
   -7.5060   -1.0439   -0.8302 C   0  0  0  0  0  0  0  0  0  0  0  0
   -7.6125   -0.4752    0.5540 C   0  0  0  0  0  3  0  0  0  0  0  0
   -8.4168    0.7457    0.4678 N   0  0  0  0  0  0  0  0  0  0  0  0
   -8.3027    1.4561    1.7220 C   0  0  0  0  0  0  0  0  0  0  0  0
   -7.0879    2.3382    1.7083 C   0  0  0  0  0  0  0  0  0  0  0  0
   -6.4539    2.2906    0.3533 C   0  0  0  0  0  0  0  0  0  0  0  0
   -5.6994    3.6743    0.1687 C   0  0  2  0  0  0  0  0  0  0  0  0
   -5.2760    3.6323   -1.2140 N   0  0  0  0  0  0  0  0  0  0  0  0
   -4.4273    3.5064    1.0191 C   0  0  0  0  0  0  0  0  0  0  0  0
   -4.5109    2.0223    1.5530 C   0  0  0  0  0  3  0  0  0  0  0  0
   -5.1891    1.5046    0.3496 C   0  0  0  0  0  0  0  0  0  0  0  0
   -4.7659    0.7552   -0.5363 N   0  0  0  0  0  4  0  0  0  0  0  0
   -4.1818    1.5203   -1.4428 C   0  0  0  0  0  0  0  0  0  0  0  0
   -3.7126    0.8367   -2.6033 C   0  0  0  0  0  0  0  0  0  0  0  0
   -3.9978    2.9806   -1.3197 C   0  0  0  0  0  0  0  0  0  0  0  0
   -3.3276    3.4036   -0.0374 C   0  0  2  0  0  0  0  0  0  0  0  0
   -2.4219    2.3951    0.2869 O   0  0  0  0  0  0  0  0  0  0  0  0
   -1.1656    2.6655   -0.1803 C   0  0  2  0  0  0  0  0  0  0  0  0
   -1.2435    3.1971   -1.5700 C   0  0  0  0  0  0  0  0  0  0  0  0
   -1.6657    4.3413   -1.8665 O   0  0  0  0  0  0  0  0  0  0  0  0
   -0.7714    2.2073   -2.4409 O   0  0  0  0  0  0  0  0  0  0  0  0
   -0.4460    1.0654   -1.7662 N   0  0  0  0  0  3  0  0  0  0  0  0
    0.8958    0.7692   -1.7662 O   0  0  0  0  0  0  0  0  0  0  0  0
    1.0537    1.8007   -0.8818 C   0  0  0  0  0  0  0  0  0  0  0  0
    2.4352    1.7789    0.2959 P   0  0  0  0  0  0  0  0  0  0  0  0
    3.1222    0.2482    0.6166 O   0  0  0  0  0  0  0  0  0  0  0  0
    2.7052   -0.6949   -0.1664 O   0  0  0  0  0  0  0  0  0  0  0  0
    3.4622   -1.7584    0.0861 O   0  0  0  0  0  0  0  0  0  0  0  0
    4.0817   -1.6186    1.3409 C   0  0  0  0  0  3  0  0  0  0  0  0
    5.3047   -0.7402    1.2295 C   0  0  0  0  0  0  0  0  0  0  0  0
    6.4173   -1.5191    0.9538 O   0  0  0  0  0  0  0  0  0  0  0  0
    6.2728   -2.2151   -0.2414 C   0  0  0  0  0  3  0  0  0  0  0  0
    6.3881   -1.2228   -1.3917 C   0  0  0  0  0  0  0  0  0  0  0  0
    6.6212    0.1845   -0.8786 C   0  0  0  0  0  3  0  0  0  0  0  0
    8.4568    0.4792   -0.7302 P   0  0  0  0  0  0  0  0  0  0  0  0
    9.1262   -0.6019    0.6412 C   0  0  0  0  0  3  0  0  0  0  0  0
   10.6267   -0.5512    0.6772 C   0  0  0  0  0  0  0  0  0  0  0  0
   11.2061   -1.6409   -0.2132 C   0  0  0  0  0  3  0  0  0  0  0  0
   12.7182   -1.5966   -0.1808 C   0  0  0  0  0  3  0  0  0  0  0  0
   13.1907   -0.8698    0.9917 N   0  0  0  0  0  0  0  0  0  0  0  0
   13.6883    0.4481    0.8330 C   0  0  0  0  0  0  0  0  0  0  0  0
   13.7322    1.0096   -0.3051 O   0  0  0  0  0  0  0  0  0  0  0  0
  1  2  1  0
  2  3  1  0
  3  4  2  0
  3  5  1  0
  5  6  1  0
  6  7  1  0
  7  8  1  0
  8  9  1  0
  9 10  1  0
 10 11  1  0
 12 11  1  1
 12 13  1  0
 13 14  1  0
 14 15  2  3
 15 16  1  0
 16 17  1  0
 17 18  1  0
 18 19  1  0
 19 20  1  0
 20 21  1  0
 21 22  1  0
 22 23  1  0
 23 24  1  6
 23 25  1  0
 25 26  1  0
 26 27  1  0
 27 28  2  0
 28 29  2  0
 29 30  1  0
 29 31  1  0
 31 32  1  0
 32 33  1  1
 34 33  1  6
 34 35  1  0
 35 36  2  0
 35 37  1  0
 37 38  1  0
 38 39  1  0
 39 40  1  0
 40 41  1  0
 41 42  1  0
 42 43  1  0
 43 44  1  0
 44 45  1  0
 45 46  1  0
 46 47  1  0
 47 48  1  0
 48 49  1  0
 49 50  1  0
 50 51  1  0
 51 52  1  0
 52 53  1  0
 53 54  1  0
 54 55  1  0
 55 56  1  0
 56 57  1  0
 57 58  2  0
 34  1  1  0
 38  1  1  0
 40  1  1  0
 12  6  1  0
 27 22  1  0
 31 24  1  0
 32 25  1  0
M  RAD  8   5   2   8   2  11   2  13   2  18   2  26   2  38   2  45   2
M  CHG  2  28   1  38   1
M  RAD  5  48   2  50   2  52   2  54   2  55   2
M  END
$$$$
