
     RDKit          3D

 23 22  0  0  0  0  0  0  0  0999 V2000
    5.7216   -1.3532   -1.3642 C   0  0  0  0  0  0  0  0  0  0  0  0
    5.9073   -0.0400   -1.4052 C   0  0  0  0  0  0  0  0  0  0  0  0
    6.7774    0.5598   -2.4782 C   0  0  0  0  0  0  0  0  0  0  0  0
    5.2879    0.8645   -0.4302 C   0  0  0  0  0  0  0  0  0  0  0  0
    4.2313    0.2698    0.3834 C   0  0  0  0  0  0  0  0  0  0  0  0
    2.9800   -0.0793   -0.1781 C   0  0  0  0  0  0  0  0  0  0  0  0
    2.8165   -0.9374   -1.3406 C   0  0  0  0  0  3  0  0  0  0  0  0
    3.1173   -0.1605   -2.6183 C   0  0  0  0  0  0  0  0  0  0  0  0
    1.4218   -1.5467   -1.4051 C   0  0  0  0  0  3  0  0  0  0  0  0
    0.4365   -0.5004   -0.9993 C   0  0  0  0  0  0  0  0  0  0  0  0
    0.6596    0.0201    0.3994 C   0  0  0  0  0  3  0  0  0  0  0  0
   -0.4228    1.0732    0.6556 C   0  0  1  0  0  0  0  0  0  0  0  0
   -0.2046    2.1481   -0.4185 C   0  0  0  0  0  0  0  0  0  0  0  0
   -1.7667    0.4181    0.2988 C   0  0  0  0  0  0  0  0  0  0  0  0
   -2.8162    1.5085    0.5709 C   0  0  0  0  0  0  0  0  0  0  0  0
   -2.6966    1.8580    2.0375 C   0  0  1  0  0  0  0  0  0  0  0  0
   -3.7148    3.0086    2.3358 C   0  0  0  0  0  2  0  0  0  0  0  0
   -3.1708    0.6600    2.8847 C   0  0  0  0  0  0  0  0  0  0  0  0
   -4.5780    0.3412    2.6519 C   0  0  0  0  0  0  0  0  0  0  0  0
   -4.9878   -0.0944    1.3070 C   0  0  0  0  0  0  0  0  0  0  0  0
   -4.4010   -1.3813    0.8137 C   0  0  0  0  0  0  0  0  0  0  0  0
   -4.9112   -1.6767   -0.5479 C   0  0  0  0  0  0  0  0  0  0  0  0
   -5.6869   -0.9685   -1.1529 O   0  0  0  0  0  0  0  0  0  0  0  0
  1  2  2  0
  2  3  1  0
  2  4  1  0
  4  5  1  0
  5  6  1  0
  6  7  1  0
  7  8  1  0
  7  9  1  0
  9 10  1  0
 10 11  1  0
 11 12  1  0
 12 13  1  6
 12 14  1  0
 14 15  1  0
 15 16  1  0
 16 17  1  6
 16 18  1  0
 18 19  1  0
 19 20  1  0
 20 21  1  0
 21 22  1  0
 22 23  2  0
M  RAD  4   7   2   9   2  11   2  17   3
M  END
$$$$
