
     RDKit          3D

 59 59  0  0  0  0  0  0  0  0999 V2000
  -11.8746   -1.1667    0.6891 C   0  0  0  0  0  0  0  0  0  0  0  0
  -13.1394   -1.7364    1.0992 N   0  0  0  0  0  0  0  0  0  0  0  0
  -13.5374   -1.2868    2.4262 C   0  0  0  0  0  0  0  0  0  0  0  0
  -14.1236   -1.2972    0.1008 C   0  0  0  0  0  0  0  0  0  0  0  0
  -13.9753   -2.2152   -1.0868 C   0  0  0  0  0  0  0  0  0  0  0  0
  -13.1621   -1.5973   -2.2030 C   0  0  0  0  0  0  0  0  0  0  0  0
  -13.2281   -0.1227   -2.1899 C   0  0  0  0  0  0  0  0  0  0  0  0
  -14.6190    0.4656   -2.2071 C   0  0  0  0  0  0  0  0  0  0  0  0
  -12.1744    0.6037   -2.1654 C   0  0  0  0  0  0  0  0  0  0  0  0
  -10.8040    0.4459   -2.1442 C   0  0  0  0  0  0  0  0  0  0  0  0
   -9.9391   -0.5051   -2.0554 C   0  0  0  0  0  0  0  0  0  0  0  0
  -10.3600   -1.9114   -1.9328 C   0  0  0  0  0  0  0  0  0  0  0  0
  -10.2155   -2.5050   -0.6038 C   0  0  0  0  0  0  0  0  0  0  0  0
  -10.8480   -2.1952    0.4927 C   0  0  0  0  0  0  0  0  0  0  0  0
   -8.5813   -0.2311   -2.0736 O   0  0  0  0  0  0  0  0  0  0  0  0
   -7.5987   -0.8896   -1.3550 C   0  0  0  0  0  0  0  0  0  0  0  0
   -7.7732   -0.8402    0.1433 C   0  0  0  0  0  3  0  0  0  0  0  0
   -7.1529    0.3631    0.6297 N   0  0  0  0  0  0  0  0  0  0  0  0
   -5.7778    0.6820    0.5573 C   0  0  0  0  0  0  0  0  0  0  0  0
   -4.9962   -0.1290    0.0333 O   0  0  0  0  0  0  0  0  0  0  0  0
   -5.2413    1.8899    1.0543 N   0  0  0  0  0  0  0  0  0  0  0  0
   -3.9352    2.3311    1.0503 C   0  0  0  0  0  0  0  0  0  0  0  0
   -2.8315    1.8043    0.6271 C   0  0  0  0  0  0  0  0  0  0  0  0
   -1.5990    2.6586    0.8264 C   0  0  0  0  0  0  0  0  0  0  0  0
   -0.6521    1.9047    1.7070 C   0  0  0  0  0  0  0  0  0  0  0  0
   -0.2331    0.6361    1.1124 C   0  0  0  0  0  0  0  0  0  0  0  0
   -1.2411   -0.3837    0.7899 C   0  0  0  0  0  0  0  0  0  0  0  0
    1.1691    0.3600    0.9742 C   0  0  0  0  0  0  0  0  0  0  0  0
    2.1112    0.2726    2.0624 C   0  0  0  0  0  0  0  0  0  0  0  0
    2.3770    1.3664    2.9731 C   0  0  0  0  0  0  0  0  0  0  0  0
    1.0907    2.0014    3.9577 Cl  0  0  0  0  0  0  0  0  0  0  0  0
    3.4506    2.3366    2.6447 C   0  0  0  0  0  0  0  0  0  0  0  0
    4.7729    1.6432    2.5390 C   0  0  0  0  0  0  0  0  0  0  0  0
    4.7164    0.6026    1.4522 C   0  0  0  0  0  0  0  0  0  0  0  0
    4.3980    1.2158    0.1320 C   0  0  0  0  0  0  0  0  0  0  0  0
    5.4231    2.2462   -0.2629 C   0  0  0  0  0  0  0  0  0  0  0  0
    6.7694    1.5903   -0.3425 C   0  0  0  0  0  0  0  0  0  0  0  0
    6.7148    0.4743   -1.3924 C   0  0  0  0  0  0  0  0  0  0  0  0
    6.3440    1.1286   -2.7081 C   0  0  0  0  0  0  0  0  0  0  0  0
    6.2783    0.0531   -3.7982 C   0  0  1  0  0  0  0  0  0  0  0  0
    5.9001    0.7988   -5.0780 C   0  0  0  0  0  0  0  0  0  0  0  0
    6.9569    1.8428   -5.3850 C   0  0  0  0  0  0  0  0  0  0  0  0
    7.0601    2.8401   -4.2449 C   0  0  0  0  0  0  0  0  0  0  0  0
    8.0987    3.8880   -4.5212 C   0  0  0  0  0  0  0  0  0  0  0  0
    7.6512   -0.5570   -3.8969 C   0  0  0  0  0  0  0  0  0  0  0  0
    7.7466   -1.6352   -4.9313 C   0  0  0  0  0  0  0  0  0  0  0  0
    7.1364    0.8984    0.9587 C   0  0  0  0  0  0  0  0  0  0  0  0
    8.4988    0.2672    0.8223 C   0  0  0  0  0  0  0  0  0  0  0  0
    9.4897    1.3778    0.5313 C   0  0  1  0  0  0  0  0  0  0  0  0
    9.1294    2.2597   -0.9462 Cl  0  0  0  0  0  0  0  0  0  0  0  0
    9.5578    2.3056    1.7351 C   0  0  0  0  0  0  0  0  0  0  0  0
   10.0150    1.4683    2.9208 C   0  0  0  0  0  0  0  0  0  0  0  0
   11.3767    0.9173    2.5578 C   0  0  0  0  0  0  0  0  0  0  0  0
   11.9810    0.0611    3.6217 C   0  0  0  0  0  0  0  0  0  0  0  0
   11.1863   -1.1496    3.9858 C   0  0  0  0  0  0  0  0  0  0  0  0
   10.9506   -2.1076    2.8564 C   0  0  0  0  0  0  0  0  0  0  0  0
   10.1320   -3.2674    3.4163 C   0  0  0  0  0  0  0  0  0  0  0  0
    9.8294   -4.3042    2.3673 C   0  0  0  0  0  0  0  0  0  0  0  0
   11.3015   -5.0085    1.6765 Cl  0  0  0  0  0  0  0  0  0  0  0  0
  1  2  1  0
  2  3  1  0
  2  4  1  0
  4  5  1  0
  5  6  1  0
  6  7  1  0
  7  8  1  0
  7  9  2  3
  9 10  1  0
 10 11  2  3
 11 12  1  0
 12 13  1  0
 13 14  2  3
 11 15  1  0
 15 16  1  0
 16 17  1  0
 17 18  1  0
 18 19  1  0
 19 20  2  0
 19 21  1  0
 21 22  1  0
 22 23  2  3
 23 24  1  0
 24 25  1  0
 25 26  1  0
 26 27  1  0
 26 28  1  0
 28 29  1  0
 29 30  1  0
 30 31  1  0
 30 32  1  0
 32 33  1  0
 33 34  1  0
 34 35  1  0
 35 36  1  0
 36 37  1  0
 37 38  1  0
 38 39  1  0
 40 39  1  1
 40 41  1  0
 41 42  1  0
 42 43  1  0
 43 44  1  0
 40 45  1  0
 45 46  1  0
 37 47  1  0
 47 48  1  0
 48 49  1  0
 49 50  1  6
 49 51  1  0
 51 52  1  0
 52 53  1  0
 53 54  1  0
 54 55  1  0
 55 56  1  0
 56 57  1  0
 57 58  1  0
 58 59  1  0
 14  1  1  0
M  RAD  1  17   2
M  END
$$$$
