
     RDKit          3D

 30 32  0  0  0  0  0  0  0  0999 V2000
   -3.8220   -1.8160   -0.4813 C   0  0  0  0  0  0  0  0  0  0  0  0
   -4.6755   -1.4680   -1.5152 C   0  0  0  0  0  0  0  0  0  0  0  0
   -5.2052   -0.2227   -1.6852 C   0  0  0  0  0  0  0  0  0  0  0  0
   -4.8839    0.7825   -0.7747 C   0  0  0  0  0  0  0  0  0  0  0  0
   -4.0352    0.4524    0.2608 C   0  0  0  0  0  0  0  0  0  0  0  0
   -3.5050   -0.8200    0.4186 C   0  0  0  0  0  0  0  0  0  0  0  0
   -3.6613    1.4934    1.2607 C   0  0  0  0  0  0  0  0  0  0  0  0
   -2.6584    2.3944    0.6835 C   0  0  0  0  0  0  0  0  0  0  0  0
   -2.8995    2.9967   -0.4919 C   0  0  0  0  0  0  0  0  0  0  0  0
   -1.8742    3.9017   -1.0574 C   0  0  0  0  0  0  0  0  0  0  0  0
   -0.6429    3.5042   -1.2751 C   0  0  0  0  0  0  0  0  0  0  0  0
    0.5985    4.5974   -1.9585 S   0  0  0  0  0  0  0  0  0  0  0  0
    0.9917    5.7527   -0.9218 C   0  0  0  0  0  0  0  0  0  0  0  0
   -0.2333    1.8025   -0.8608 S   0  0  0  0  0  0  0  0  0  0  0  0
    1.5217    1.7022   -0.6993 C   0  0  0  0  0  0  0  0  0  0  0  0
    2.2266    0.6613   -0.3268 C   0  0  0  0  0  0  0  0  0  0  0  0
    3.7000    0.7655   -0.2491 C   0  0  0  0  0  0  0  0  0  0  0  0
    4.1713    0.4127    1.4867 S   0  0  0  0  0  0  0  0  0  0  0  0
    5.9459    0.5098    1.7137 C   0  0  0  0  0  0  0  0  0  0  0  0
    6.7936   -0.8076    0.7939 S   0  0  0  0  0  0  0  0  0  0  0  0
    8.5275   -0.6342    1.0751 N   0  0  0  0  0  0  0  0  0  0  0  0
    1.5009   -0.9203    0.1055 S   0  0  0  0  0  0  0  0  0  0  0  0
   -0.0695   -1.5328   -0.5995 C   0  0  0  0  0  0  0  0  0  0  0  0
    2.4002   -2.1604    0.7415 C   0  0  0  0  0  0  0  0  0  0  0  0
    1.8608   -3.4710    0.6177 N   0  0  0  0  0  0  0  0  0  0  0  0
    2.1725   -4.4950    1.6114 C   0  0  0  0  0  0  0  0  0  0  0  0
    1.0054   -3.7348   -0.5203 C   0  0  0  0  0  0  0  0  0  0  0  0
   -0.2151   -2.8470   -0.4821 C   0  0  0  0  0  0  0  0  0  0  0  0
   -1.7670   -3.6761   -0.2801 S   0  0  0  0  0  0  0  0  0  0  0  0
   -3.2686   -3.1236   -0.2994 C   0  0  0  0  0  0  0  0  0  0  0  0
  1  2  2  0
  2  3  1  0
  3  4  2  0
  4  5  1  0
  5  6  2  0
  5  7  1  0
  7  8  1  0
  8  9  2  3
  9 10  1  0
 10 11  2  3
 11 12  1  0
 12 13  2  0
 11 14  1  0
 14 15  1  0
 15 16  2  3
 16 17  1  0
 17 18  1  0
 18 19  1  0
 19 20  1  0
 20 21  1  0
 16 22  1  0
 22 23  1  0
 22 24  2  0
 24 25  1  0
 25 26  1  0
 25 27  1  0
 27 28  1  0
 28 29  1  0
 29 30  2  3
  6  1  1  0
 30  1  1  0
 23 28  2  0
M  END
$$$$
