
     RDKit          3D

 25 25  0  0  0  0  0  0  0  0999 V2000
    0.5244   -2.1778    0.4565 C   0  0  0  0  0  0  0  0  0  0  0  0
    1.9385   -1.7006    0.5639 C   0  0  1  0  0  0  0  0  0  0  0  0
    2.7552   -2.3452   -0.5367 C   0  0  0  0  0  0  0  0  0  0  0  0
    4.1731   -1.8335   -0.5804 C   0  0  2  0  0  0  0  0  0  0  0  0
    4.9616   -2.3694    0.4224 O   0  0  0  0  0  0  0  0  0  0  0  0
    4.2437   -0.3220   -0.6140 C   0  0  2  0  0  0  0  0  0  0  0  0
    5.5637    0.0608   -0.5770 O   0  0  0  0  0  0  0  0  0  0  0  0
    3.4465    0.2167    0.5752 C   0  0  1  0  0  0  0  0  0  0  0  0
    3.5953    1.5829    0.6194 O   0  0  0  0  0  0  0  0  0  0  0  0
    2.0084   -0.1953    0.3358 C   0  0  1  0  0  0  0  0  0  0  0  0
    1.7087    0.0698   -1.0781 N   0  0  0  0  0  0  0  0  0  0  0  0
    0.3606   -0.3562   -1.4024 C   0  0  0  0  0  3  0  0  0  0  0  0
   -0.6198    0.7730   -1.0532 C   0  0  0  0  0  0  0  0  0  0  0  0
   -0.2284    1.9616   -1.8722 C   0  0  0  0  0  0  0  0  0  0  0  0
   -0.6090    0.9302    0.2847 O   0  0  0  0  0  0  0  0  0  0  0  0
   -1.3931    1.8695    0.8485 C   0  0  1  0  0  0  0  0  0  0  0  0
   -1.1586    3.1733    0.4468 O   0  0  0  0  0  0  0  0  0  0  0  0
   -2.8676    1.5766    0.5717 C   0  0  2  0  0  0  0  0  0  0  0  0
   -3.6669    2.5716    1.1716 O   0  0  0  0  0  0  0  0  0  0  0  0
   -3.1677    0.2412    1.2034 C   0  0  2  0  0  0  0  0  0  0  0  0
   -2.3838   -0.7350    0.6136 O   0  0  0  0  0  0  0  0  0  0  0  0
   -4.6191   -0.1285    1.1518 C   0  0  0  0  0  3  0  0  0  0  0  0
   -5.1770   -0.2243   -0.2319 C   0  0  0  0  0  0  0  0  0  0  0  0
   -4.4282   -1.2772   -1.0147 C   0  0  0  0  0  3  0  0  0  0  0  0
   -4.9605   -1.3622   -2.3207 O   0  0  0  0  0  0  0  0  0  0  0  0
  2  1  1  6
  2  3  1  0
  3  4  1  0
  4  5  1  1
  4  6  1  0
  6  7  1  1
  6  8  1  0
  8  9  1  6
  8 10  1  0
 10 11  1  6
 11 12  1  0
 12 13  1  0
 13 14  1  0
 13 15  1  0
 15 16  1  0
 16 17  1  6
 16 18  1  0
 18 19  1  1
 18 20  1  0
 20 21  1  6
 20 22  1  0
 22 23  1  0
 23 24  1  0
 24 25  1  0
 10  2  1  0
M  RAD  3  12   2  22   2  24   2
M  END
$$$$
