
     RDKit          3D

 84 84  0  0  0  0  0  0  0  0999 V2000
    1.1915   -0.7502   -1.7452 O   0  0  0  0  0  0  0  0  0  0  0  0
   -0.1706   -1.0035   -1.3960 C   0  0  0  0  0  0  0  0  0  0  0  0
   -0.3464   -2.5278   -1.4101 C   0  0  0  0  0  3  0  0  0  0  0  0
    0.7115   -3.2006   -0.7124 N   0  0  0  0  0  0  0  0  0  0  0  0
    0.2411   -4.3740   -0.0237 C   0  0  2  0  0  0  0  0  0  0  0  0
   -0.0889   -3.9763    1.3963 C   0  0  0  0  0  0  0  0  0  0  0  0
    1.0649   -3.4764    1.9849 O   0  0  0  0  0  0  0  0  0  0  0  0
    1.2126   -5.5146   -0.0106 C   0  0  1  0  0  0  0  0  0  0  0  0
    1.5607   -5.8042    1.2908 O   0  0  0  0  0  0  0  0  0  0  0  0
    0.7069   -6.7653   -0.6815 C   0  0  0  0  0  0  0  0  0  0  0  0
    1.5863   -7.2144   -1.6625 O   0  0  0  0  0  0  0  0  0  0  0  0
    0.4664   -7.9026    0.3072 C   0  0  0  0  0  3  0  0  0  0  0  0
   -0.9787   -8.0107    0.6948 C   0  0  0  0  0  0  0  0  0  0  0  0
   -1.6761   -6.9112    0.7672 C   0  0  0  0  0  0  0  0  0  0  0  0
   -3.0989   -6.7845    1.1271 C   0  0  0  0  0  0  0  0  0  0  0  0
   -3.9374   -7.6479    0.3310 N   0  0  0  0  0  3  0  0  0  0  0  0
   -3.2991   -8.8132    0.1161 O   0  0  0  0  0  0  0  0  0  0  0  0
   -4.3057   -7.0307   -0.9204 C   0  0  1  0  0  0  0  0  0  0  0  0
   -4.5829   -8.1643   -1.8909 C   0  0  0  0  0  0  0  0  0  0  0  0
   -5.4680   -6.2807   -0.8015 O   0  0  0  0  0  0  0  0  0  0  0  0
   -5.3279   -5.4117    0.2195 N   0  0  0  0  0  2  0  0  0  0  0  0
   -6.2360   -4.4021    0.1289 O   0  0  0  0  0  0  0  0  0  0  0  0
   -7.4688   -5.0035   -0.1044 C   0  0  1  0  0  0  0  0  0  0  0  0
   -7.4407   -6.3517    0.3089 O   0  0  0  0  0  0  0  0  0  0  0  0
   -8.5595   -4.3548    0.7552 C   0  0  0  0  0  0  0  0  0  0  0  0
   -9.5882   -5.3106    0.8338 O   0  0  0  0  0  0  0  0  0  0  0  0
   -9.0730   -3.2714    0.0251 O   0  0  0  0  0  0  0  0  0  0  0  0
  -10.2497   -2.9184    0.5609 N   0  0  0  0  0  3  0  0  0  0  0  0
  -11.2710   -3.6435    0.0295 O   0  0  0  0  0  0  0  0  0  0  0  0
  -10.4536   -1.5015    0.2547 C   0  0  0  0  0  0  0  0  0  0  0  0
  -11.8127   -1.2846    0.0064 O   0  0  0  0  0  0  0  0  0  0  0  0
  -11.9786   -0.2003   -0.7499 O   0  0  0  0  0  0  0  0  0  0  0  0
  -11.5301    0.9358   -0.0342 C   0  0  0  0  0  0  0  0  0  0  0  0
  -10.1249    0.9787   -0.1963 O   0  0  0  0  0  0  0  0  0  0  0  0
   -9.7670    2.3377   -0.0282 C   0  0  0  0  0  0  0  0  0  0  0  0
   -9.4660    2.4887    1.3748 O   0  0  0  0  0  0  0  0  0  0  0  0
   -8.2050    3.0893    1.6050 N   0  0  0  0  0  0  0  0  0  0  0  0
   -8.2725    4.3917    1.3611 C   0  0  0  0  0  0  0  0  0  0  0  0
   -7.3191    5.1603    1.4746 N   0  0  0  0  0  4  0  0  0  0  0  0
   -6.3814    5.9314    1.6049 C   0  0  0  0  0  0  0  0  0  0  0  0
   -5.3843    6.7222    1.7434 O   0  0  0  0  0  0  0  0  0  0  0  0
   -4.3697    6.7934    0.7352 C   0  0  0  0  0  0  0  0  0  0  0  0
   -4.8027    6.1227   -0.4058 O   0  0  0  0  0  0  0  0  0  0  0  0
   -4.8415    7.0311   -1.4703 C   0  0  1  0  0  0  0  0  0  0  0  0
   -5.8305    8.0785   -1.1762 N   0  0  0  0  0  3  0  0  0  0  0  0
   -5.8504    8.8799   -2.2932 O   0  0  0  0  0  0  0  0  0  0  0  0
   -5.3020    8.8198   -0.1304 O   0  0  0  0  0  0  0  0  0  0  0  0
   -5.0807   10.1524   -0.3452 C   0  0  0  0  0  0  0  0  0  0  0  0
   -4.8828   11.3421   -0.5397 C   0  0  0  0  0  0  0  0  0  0  0  0
   -3.4831    7.7286   -1.5555 C   0  0  0  0  0  0  0  0  0  0  0  0
   -2.4968    6.8059   -0.8913 N   0  0  0  0  0  0  0  0  0  0  0  0
   -2.7162    5.4499   -1.2482 O   0  0  0  0  0  0  0  0  0  0  0  0
   -1.6475    7.1395   -0.1410 C   0  0  0  0  0  0  0  0  0  0  0  0
   -0.6568    7.5467    0.7631 C   0  0  0  0  0  0  0  0  0  0  0  0
    0.2789    7.9289    1.5887 C   0  0  0  0  0  0  0  0  0  0  0  0
    1.5949    7.9045    1.0462 O   0  0  0  0  0  0  0  0  0  0  0  0
    1.5662    7.2515   -0.1990 C   0  0  0  0  0  0  0  0  0  0  0  0
    1.4581    5.9249   -0.1165 N   0  0  0  0  0  4  0  0  0  0  0  0
    1.3870    4.8763   -0.0450 C   0  0  0  0  0  0  0  0  0  0  0  0
    1.2810    3.6162    0.0483 C   0  0  0  0  0  0  0  0  0  0  0  0
    1.1971    2.5235    0.1368 C   0  0  0  0  0  0  0  0  0  0  0  0
    1.1053    1.2109    0.2644 O   0  0  0  0  0  0  0  0  0  0  0  0
    2.1597    0.3306    0.1254 N   0  0  0  0  0  4  0  0  0  0  0  0
    3.2690    0.3129    1.0208 N   0  0  0  0  0  1  0  0  0  0  0  0
    2.1906   -0.5710   -0.8194 C   0  0  0  0  0  0  0  0  0  0  0  0
    3.4512   -1.3944   -0.7993 C   0  0  0  0  0  0  0  0  0  0  0  0
    3.4787   -2.2048    0.3176 O   0  0  0  0  0  0  0  0  0  0  0  0
    4.4789   -0.3672   -0.7500 O   0  0  0  0  0  0  0  0  0  0  0  0
    5.7729   -0.6294   -0.5918 C   0  0  0  0  0  0  0  0  0  0  0  0
    6.9397   -0.8653   -0.4349 C   0  0  0  0  0  0  0  0  0  0  0  0
    8.3332   -1.1670   -0.2411 C   0  0  0  0  0  0  0  0  0  0  0  0
    9.4722   -1.4343   -0.0861 C   0  0  0  0  0  0  0  0  0  0  0  0
   10.7363   -1.7420    0.0687 N   0  0  0  0  0  4  0  0  0  0  0  0
   11.8266   -2.0267    0.1966 C   0  0  0  0  0  0  0  0  0  0  0  0
   13.1739   -2.3861    0.3749 C   0  0  0  0  0  0  0  0  0  0  0  0
   14.3010   -2.7037    0.5279 C   0  0  0  0  0  0  0  0  0  0  0  0
   15.5958   -3.0918    0.7095 O   0  0  0  0  0  0  0  0  0  0  0  0
   16.2944   -2.3814    1.7718 C   0  0  0  0  0  3  0  0  0  0  0  0
   17.2087   -1.5093    1.1933 N   0  0  0  0  0  4  0  0  0  0  0  0
   18.0033   -0.7628    0.6838 C   0  0  0  0  0  0  0  0  0  0  0  0
   18.9227    0.1234    0.0919 C   0  0  0  0  0  0  0  0  0  0  0  0
   19.7003    0.8963   -0.4101 C   0  0  0  0  0  0  0  0  0  0  0  0
   20.5583    1.7230   -0.9565 N   0  0  0  0  0  4  0  0  0  0  0  0
   21.3456    2.4958   -1.4828 C   0  0  0  0  0  0  0  0  0  0  0  0
  1  2  1  0
  2  3  1  0
  3  4  1  0
  4  5  1  0
  5  6  1  1
  6  7  1  0
  5  8  1  0
  8  9  1  1
  8 10  1  0
 10 11  1  0
 10 12  1  0
 12 13  1  0
 13 14  2  3
 14 15  1  0
 15 16  1  0
 16 17  1  0
 16 18  1  0
 18 19  1  6
 18 20  1  0
 20 21  1  0
 21 22  1  0
 22 23  1  0
 23 24  1  1
 23 25  1  0
 25 26  1  0
 25 27  1  0
 27 28  1  0
 28 29  1  0
 28 30  1  0
 30 31  1  0
 31 32  1  0
 32 33  1  0
 33 34  1  0
 34 35  1  0
 35 36  1  0
 36 37  1  0
 37 38  2  3
 38 39  1  0
 39 40  3  0
 40 41  1  0
 41 42  1  0
 42 43  1  0
 43 44  1  0
 44 45  1  1
 45 46  1  0
 45 47  1  0
 47 48  1  0
 48 49  3  0
 44 50  1  0
 50 51  1  0
 51 52  1  0
 51 53  1  0
 53 54  3  0
 54 55  1  0
 55 56  1  0
 56 57  1  0
 57 58  1  0
 58 59  3  0
 59 60  1  0
 60 61  3  0
 61 62  1  0
 62 63  1  0
 63 64  1  0
 63 65  2  3
 65 66  1  0
 66 67  1  0
 66 68  1  0
 68 69  1  0
 69 70  3  0
 70 71  1  0
 71 72  3  0
 72 73  1  0
 73 74  3  0
 74 75  1  0
 75 76  3  0
 76 77  1  0
 77 78  1  0
 78 79  1  0
 79 80  3  0
 80 81  1  0
 81 82  3  0
 82 83  1  0
 83 84  3  0
 65  1  1  0
M  CHG  8  16   1  21   1  28   1  39   1  45   1  58   1  63   1  64   1
M  RAD  8   3   2  12   2  16   2  21   3  28   2  45   2  64   2  78   2
M  CHG  3  73   1  79   1  83   1
M  END
$$$$
