
     RDKit          3D

  9  8  0  0  0  0  0  0  0  0999 V2000
    2.7113   -0.5883   -0.2285 C   0  0  0  0  0  0  0  0  0  0  0  0
    4.0020   -1.0715   -0.1493 O   0  0  0  0  0  0  0  0  0  0  0  0
    1.5793   -0.1700   -0.2776 C   0  0  0  0  0  0  0  0  0  0  0  0
    0.2425    0.3468   -0.3228 C   0  0  0  0  0  0  0  0  0  0  0  0
    0.0943    1.7126   -0.5158 O   0  0  0  0  0  0  0  0  0  0  0  0
   -0.7896   -0.4677   -0.1833 C   0  0  0  0  0  0  0  0  0  0  0  0
   -2.1696   -0.0071   -0.2195 C   0  0  0  0  0  0  0  0  0  0  0  0
   -3.1747   -0.9521   -0.0619 O   0  0  0  0  0  0  0  0  0  0  0  0
   -2.4956    1.1973   -0.3855 O   0  0  0  0  0  0  0  0  0  0  0  0
  1  2  1  0
  1  3  3  0
  3  4  1  0
  4  5  1  0
  4  6  2  3
  6  7  1  0
  7  8  1  0
  7  9  2  0
M  END
$$$$
