
     RDKit          3D

 71 71  0  0  0  0  0  0  0  0999 V2000
  -12.3745    5.4071   -2.7932 C   0  0  0  0  0  0  0  0  0  0  0  0
  -11.8960    5.2514   -1.3678 C   0  0  0  0  0  0  0  0  0  0  0  0
  -10.4863    5.7511   -1.2822 C   0  0  0  0  0  0  0  0  0  0  0  0
  -11.9544    3.7829   -0.9890 C   0  0  0  0  0  0  0  0  0  0  0  0
  -13.3710    3.2572   -1.0985 C   0  0  0  0  0  0  0  0  0  0  0  0
  -14.3237    3.9807   -0.2057 C   0  0  0  0  0  0  0  0  0  0  0  0
  -13.8752    3.8058    1.2317 C   0  0  0  0  0  0  0  0  0  0  0  0
  -14.8144    4.5393    2.1798 C   0  0  0  0  0  0  0  0  0  0  0  0
  -13.8658    2.3085    1.5871 C   0  0  0  0  0  0  0  0  0  0  0  0
  -13.4062    2.2256    3.0391 C   0  0  0  0  0  0  0  0  0  0  0  0
  -12.7830    1.6707    0.7547 C   0  0  0  0  0  0  0  0  0  0  0  0
  -12.6524    0.2013    0.9927 C   0  0  0  0  0  0  0  0  0  0  0  0
  -11.5568   -0.3459    0.1255 C   0  0  0  0  0  0  0  0  0  0  0  0
  -10.2625    0.3578    0.4881 C   0  0  0  0  0  0  0  0  0  0  0  0
   -9.1240   -0.1478   -0.3497 C   0  0  0  0  0  0  0  0  0  0  0  0
   -8.9443   -1.5727   -0.1416 N   0  0  0  0  0  2  0  0  0  0  0  0
   -7.6741   -2.0308   -0.6855 C   0  0  0  0  0  0  0  0  0  0  0  0
   -6.9470   -1.1690   -1.6617 C   0  0  0  0  0  0  0  0  0  0  0  0
   -6.4062   -1.4503   -0.2388 C   0  0  0  0  0  0  0  0  0  0  0  0
   -6.3620   -0.2401    0.6785 C   0  0  0  0  0  0  0  0  0  0  0  0
   -5.1814   -2.3620   -0.2123 C   0  0  0  0  0  0  0  0  0  0  0  0
   -4.0301   -1.5204    0.2798 C   0  0  0  0  0  0  0  0  0  0  0  0
   -2.7745   -2.3568    0.3329 C   0  0  0  0  0  0  0  0  0  0  0  0
   -2.9427   -3.5286    1.2643 C   0  0  0  0  0  0  0  0  0  0  0  0
   -3.2520   -3.0290    2.6709 C   0  0  0  0  0  0  0  0  0  0  0  0
   -2.0685   -2.1575    3.1041 C   0  0  0  0  0  0  0  0  0  0  0  0
   -1.9664   -1.1027    2.1948 O   0  0  0  0  0  0  0  0  0  0  0  0
   -0.9583   -0.3331    2.5371 O   0  0  0  0  0  0  0  0  0  0  0  0
   -0.8439    0.6936    1.5913 C   0  0  0  0  0  0  0  0  0  0  0  0
    0.3121    1.5925    1.9653 C   0  0  0  0  0  0  0  0  0  0  0  0
    1.5595    1.1759    2.0715 C   0  0  0  0  0  0  0  0  0  0  0  0
    2.8203    0.7395    2.1282 C   0  0  0  0  0  0  0  0  0  0  0  0
    3.1350   -0.7104    1.8443 C   0  0  0  0  0  0  0  0  0  0  0  0
    4.6305   -0.9790    1.9651 C   0  0  0  0  0  0  0  0  0  0  0  0
    5.2856   -0.1726    1.0379 O   0  0  0  0  0  0  0  0  0  0  0  0
    5.0094    1.1704    1.3075 C   0  0  0  0  0  0  0  0  0  0  0  0
    5.7233    2.0458    0.2941 C   0  0  0  0  0  0  0  0  0  0  0  0
    5.2749    1.7346   -1.1069 C   0  0  0  0  0  0  0  0  0  0  0  0
    5.5357    0.3389   -1.4909 C   0  0  0  0  0  0  0  0  0  0  0  0
    6.9178   -0.1580   -1.5476 C   0  0  0  0  0  0  0  0  0  0  0  0
    7.8110    0.4846   -2.5222 C   0  0  0  0  0  0  0  0  0  0  0  0
    8.0475    1.9302   -2.2888 C   0  0  0  0  0  0  0  0  0  0  0  0
    8.7294    2.2236   -0.9841 C   0  0  0  0  0  0  0  0  0  0  0  0
   10.0559    1.5874   -0.8702 C   0  0  0  0  0  0  0  0  0  0  0  0
   10.5420    0.8414   -1.8654 C   0  0  0  0  0  0  0  0  0  0  0  0
   11.8977    0.2460   -1.6382 C   0  0  0  0  0  0  0  0  0  0  0  0
   11.8574   -1.2486   -1.7029 C   0  0  0  0  0  0  0  0  0  0  0  0
   11.3706   -1.7087   -3.0605 C   0  0  0  0  0  0  0  0  0  0  0  0
   11.3573   -3.2355   -3.0573 C   0  0  0  0  0  0  0  0  0  0  0  0
   12.7773   -3.7189   -2.7901 C   0  0  0  0  0  0  0  0  0  0  0  0
   13.2183   -3.1815   -1.4321 C   0  0  0  0  0  0  0  0  0  0  0  0
   14.5920   -3.5973   -1.0863 C   0  0  0  0  0  0  0  0  0  0  0  0
   15.5407   -2.6917   -0.8653 C   0  0  0  0  0  0  0  0  0  0  0  0
   16.9040   -3.1681   -0.5212 C   0  0  0  0  0  0  0  0  0  0  0  0
   15.2268   -1.2523   -0.9642 C   0  0  0  0  0  0  0  0  0  0  0  0
   15.5028   -0.6068    0.3733 C   0  0  0  0  0  0  0  0  0  0  0  0
   16.9529   -0.7985    0.7145 C   0  0  0  0  0  0  0  0  0  0  0  0
   17.8188   -0.1438   -0.3692 C   0  0  0  0  0  0  0  0  0  0  0  0
   17.4354    1.3251   -0.3663 C   0  0  0  0  0  0  0  0  0  0  0  0
   17.7211    1.9072    0.9993 C   0  0  0  0  0  0  0  0  0  0  0  0
   19.1823    1.7758    1.3266 C   0  0  0  0  0  0  0  0  0  0  0  0
   19.9746    2.5171    0.2912 C   0  0  0  0  0  0  0  0  0  0  0  0
   21.4518    2.3778    0.6325 C   0  0  0  0  0  0  0  0  0  0  0  0
  -13.9469   -0.5542    0.8395 C   0  0  0  0  0  0  0  0  0  0  0  0
  -14.5301   -0.4132   -0.5463 C   0  0  0  0  0  0  0  0  0  0  0  0
  -15.8215   -1.2139   -0.5673 C   0  0  0  0  0  0  0  0  0  0  0  0
  -15.4196   -2.6588   -0.2456 C   0  0  0  0  0  0  0  0  0  0  0  0
  -16.6838   -3.4862   -0.2576 C   0  0  0  0  0  0  0  0  0  0  0  0
  -17.2732   -3.3645   -1.6354 C   0  0  0  0  0  0  0  0  0  0  0  0
  -16.4371   -3.3615   -2.6900 C   0  0  0  0  0  3  0  0  0  0  0  0
  -14.9622   -3.4762   -2.4955 C   0  0  0  0  0  0  0  0  0  0  0  0
  1  2  1  0
  2  3  1  0
  2  4  1  0
  4  5  1  0
  5  6  1  0
  6  7  1  0
  7  8  1  0
  7  9  1  0
  9 10  1  0
  9 11  1  0
 11 12  1  0
 12 13  1  0
 13 14  1  0
 14 15  1  0
 15 16  1  0
 16 17  1  0
 17 18  1  0
 18 19  1  0
 19 20  1  0
 19 21  1  0
 21 22  1  0
 22 23  1  0
 23 24  1  0
 24 25  1  0
 25 26  1  0
 26 27  1  0
 27 28  1  0
 28 29  1  0
 29 30  1  0
 30 31  1  0
 31 32  1  0
 32 33  1  0
 33 34  1  0
 34 35  1  0
 35 36  1  0
 36 37  1  0
 37 38  1  0
 38 39  1  0
 39 40  1  0
 40 41  1  0
 41 42  1  0
 42 43  1  0
 43 44  1  0
 44 45  2  3
 45 46  1  0
 46 47  1  0
 47 48  1  0
 48 49  1  0
 49 50  1  0
 50 51  1  0
 51 52  1  0
 52 53  2  3
 53 54  1  0
 53 55  1  0
 55 56  1  0
 56 57  1  0
 57 58  1  0
 58 59  1  0
 59 60  1  0
 60 61  1  0
 61 62  1  0
 62 63  1  0
 12 64  1  0
 64 65  1  0
 65 66  1  0
 66 67  1  0
 67 68  1  0
 68 69  1  0
 69 70  2  3
 70 71  1  0
 19 17  1  0
M  CHG  1  16   1
M  RAD  2  16   3  70   2
M  END
$$$$
