
     RDKit          3D

  6  5  0  0  0  0  0  0  0  0999 V2000
    1.8178   -1.4627    1.1962 N   0  0  0  0  0  0  0  0  0  0  0  0
    1.3584   -0.7751    0.3864 C   0  0  0  0  0  0  0  0  0  0  0  0
    0.8204    0.0333   -0.5982 O   0  0  0  0  0  0  0  0  0  0  0  0
   -0.1586    1.3730   -0.2633 S   0  0  0  0  0  0  0  0  0  0  0  0
   -1.7213    1.0540   -0.2394 C   0  0  0  0  0  0  0  0  0  0  0  0
   -2.1167   -0.2226   -0.4818 F   0  0  0  0  0  0  0  0  0  0  0  0
  1  2  3  0
  2  3  1  0
  3  4  1  0
  4  5  2  3
  5  6  1  0
M  END
$$$$
