
     RDKit          3D

 14 14  0  0  0  0  0  0  0  0999 V2000
   -2.2923   -1.4128   -2.9494 C   0  0  0  0  0  0  0  0  0  0  0  0
   -1.6647   -0.9372   -1.8332 O   0  0  0  0  0  0  0  0  0  0  0  0
   -2.0196   -0.1157   -0.8546 C   0  0  0  0  0  0  0  0  0  0  0  0
   -3.2686    0.4572   -0.7473 C   0  0  0  0  0  0  0  0  0  0  0  0
   -3.5766    1.2825    0.2789 C   0  0  0  0  0  0  0  0  0  0  0  0
   -2.6913    1.6002    1.2684 C   0  0  0  0  0  0  0  0  0  0  0  0
   -1.4293    1.0301    1.1699 C   0  0  0  0  0  0  0  0  0  0  0  0
   -1.0683    0.2036    0.1633 C   0  0  0  0  0  0  0  0  0  0  0  0
    0.5383   -0.4043   -0.0598 S   0  0  0  0  0  0  0  0  0  0  0  0
    1.8375   -0.9020   -0.2640 C   0  0  0  0  0  0  0  0  0  0  0  0
    3.0627   -1.3487   -0.4637 N   0  0  0  0  0  0  0  0  0  0  0  0
    4.3166   -0.9132   -0.0863 C   0  0  0  0  0  0  0  0  0  0  0  0
    4.6562    0.2127    0.4666 C   0  0  0  0  0  0  0  0  0  0  0  0
    3.5995    1.2474    0.7863 C   0  0  0  0  0  0  0  0  0  0  0  0
  1  2  1  0
  2  3  1  0
  3  4  2  0
  4  5  1  0
  5  6  2  0
  6  7  1  0
  7  8  2  0
  8  9  1  0
  9 10  3  0
 10 11  1  0
 11 12  1  0
 12 13  2  3
 13 14  1  0
  8  3  1  0
M  END
$$$$
