
     RDKit          3D

 22 22  0  0  0  0  0  0  0  0999 V2000
   -3.8976    3.3649   -1.5429 C   0  0  0  0  0  0  0  0  0  0  0  0
   -4.4099    2.0881   -1.0057 C   0  0  0  0  0  0  0  0  0  0  0  0
   -3.5854    1.1442   -0.5975 C   0  0  0  0  0  0  0  0  0  0  0  0
   -2.1395    1.2737   -0.6390 C   0  0  0  0  0  0  0  0  0  0  0  0
   -1.3119    0.3573   -0.2423 C   0  0  0  0  0  0  0  0  0  0  0  0
    0.1570    0.5209   -0.2981 C   0  0  0  0  0  0  0  0  0  0  0  0
    0.7935    1.7573   -0.8170 C   0  0  0  0  0  0  0  0  0  0  0  0
    0.9615   -0.4430    0.1185 C   0  0  0  0  0  0  0  0  0  0  0  0
    2.4300   -0.2803    0.0631 C   0  0  0  0  0  0  0  0  0  0  0  0
    3.2041   -1.2407    0.4780 C   0  0  0  0  0  0  0  0  0  0  0  0
    4.6553   -1.1608    0.4576 C   0  0  0  0  0  0  0  0  0  0  0  0
    5.2700    0.0850   -0.0655 C   0  0  0  0  0  0  0  0  0  0  0  0
    5.4069   -2.1406    0.8804 C   0  0  0  0  0  0  0  0  0  0  0  0
    6.8502   -2.0273    0.8458 C   0  0  0  0  0  0  0  0  0  0  0  0
    7.5240   -3.0150    1.2713 O   0  0  0  0  0  0  0  0  0  0  0  0
    7.4720   -0.8874    0.3677 O   0  0  0  0  0  0  0  0  0  0  0  0
   -4.1725   -0.1088   -0.0713 C   0  0  0  0  0  0  0  0  0  0  0  0
   -3.1056   -1.1393    0.1661 C   0  0  0  0  0  0  0  0  0  0  0  0
   -4.9314    0.1251    1.2183 C   0  0  0  0  0  0  0  0  0  0  0  0
   -5.1756   -0.5864   -1.0996 C   0  0  0  0  0  0  0  0  0  0  0  0
   -6.1266    0.4765   -1.5206 C   0  0  0  0  0  0  0  0  0  0  0  0
   -5.8685    1.8368   -0.9120 C   0  0  0  0  0  0  0  0  0  0  0  0
  1  2  1  0
  2  3  2  0
  3  4  1  0
  4  5  2  0
  5  6  1  0
  6  7  1  0
  6  8  2  0
  8  9  1  0
  9 10  2  0
 10 11  1  0
 11 12  1  0
 11 13  2  0
 13 14  1  0
 14 15  2  0
 14 16  1  0
  3 17  1  0
 17 18  1  0
 17 19  1  0
 17 20  1  0
 20 21  1  0
 21 22  1  0
 22  2  1  0
M  END
$$$$
