
     RDKit          3D

 29 28  0  0  0  0  0  0  0  0999 V2000
    7.2466    3.3420    1.8351 C   0  0  0  0  0  0  0  0  0  0  0  0
    7.2105    2.9202    0.3810 C   0  0  0  0  0  0  0  0  0  0  0  0
    6.8375    1.4698    0.2307 C   0  0  2  0  0  0  0  0  0  0  0  0
    6.8313    1.1548   -1.2542 C   0  0  0  0  0  0  0  0  0  0  0  0
    5.5035    1.2650    0.8398 C   0  0  0  0  0  0  0  0  0  0  0  0
    4.8859    2.2380    1.3669 O   0  0  0  0  0  0  0  0  0  0  0  0
    4.8721    0.0282    0.8661 O   0  0  0  0  0  0  0  0  0  0  0  0
    3.5963   -0.0726    1.4707 C   0  0  0  0  0  3  0  0  0  0  0  0
    2.5860    0.1979    0.3586 C   0  0  0  0  0  0  0  0  0  0  0  0
    2.2545   -1.1333   -0.2646 C   0  0  2  0  0  0  0  0  0  0  0  0
    3.4610   -1.8297   -0.8514 C   0  0  0  0  0  0  0  0  0  0  0  0
    1.1242   -1.0685   -1.1944 C   0  0  0  0  0  0  0  0  0  0  0  0
   -0.0301   -1.6205   -0.8944 C   0  0  0  0  0  0  0  0  0  0  0  0
   -0.1974   -2.3023    0.3657 C   0  0  0  0  0  0  0  0  0  0  0  0
   -1.3179   -2.8579    0.6966 C   0  0  0  0  0  0  0  0  0  0  0  0
   -2.5005   -2.8472   -0.1614 C   0  0  2  0  0  0  0  0  0  0  0  0
   -2.2360   -2.0446   -1.4042 C   0  0  0  0  0  0  0  0  0  0  0  0
   -3.6117   -2.1449    0.6191 C   0  0  2  0  0  0  0  0  0  0  0  0
   -4.7811   -2.0833   -0.1086 O   0  0  0  0  0  0  0  0  0  0  0  0
   -5.1920   -3.3804   -0.4050 C   0  0  0  0  0  0  0  0  0  0  0  0
   -3.1706   -0.7976    1.1382 C   0  0  0  0  0  0  0  0  0  0  0  0
   -2.7585    0.1638    0.0735 C   0  0  0  0  0  0  0  0  0  0  0  0
   -3.8610    0.4519   -0.8779 C   0  0  0  0  0  0  0  0  0  0  0  0
   -3.4780    1.3500   -1.8774 O   0  0  0  0  0  0  0  0  0  0  0  0
   -5.1694    0.6346   -0.3281 C   0  0  0  0  0  0  0  0  0  0  0  0
   -5.6778    1.5851    0.5667 C   0  0  0  0  0  0  0  0  0  0  0  0
   -5.2741    1.9265    1.8916 C   0  0  0  0  0  0  0  0  0  0  0  0
   -3.9826    2.5214    2.0782 C   0  0  0  0  0  0  0  0  0  0  0  0
   -3.1706    2.9334    1.3240 O   0  0  0  0  0  0  0  0  0  0  0  0
  1  2  1  0
  2  3  1  0
  3  4  1  6
  3  5  1  0
  5  6  2  0
  5  7  1  0
  7  8  1  0
  8  9  1  0
  9 10  1  0
 10 11  1  6
 10 12  1  0
 12 13  2  3
 13 14  1  0
 14 15  2  3
 15 16  1  0
 16 17  1  6
 16 18  1  0
 18 19  1  0
 19 20  1  0
 18 21  1  6
 21 22  1  0
 22 23  1  0
 23 24  1  0
 23 25  1  0
 25 26  1  0
 26 27  1  0
 27 28  1  0
 28 29  2  0
M  RAD  1   8   2
M  END
$$$$
