
     RDKit          3D

 25 25  0  0  0  0  0  0  0  0999 V2000
    6.7002    2.0260    0.4392 C   0  0  0  0  0  0  0  0  0  0  0  0
    7.0046    0.7435   -0.2915 C   0  0  0  0  0  3  0  0  0  0  0  0
    6.0576   -0.3680    0.0588 C   0  0  0  0  0  0  0  0  0  0  0  0
    4.6243   -0.0552   -0.2597 C   0  0  2  0  0  0  0  0  0  0  0  0
    4.1513    1.0640    0.4175 O   0  0  0  0  0  0  0  0  0  0  0  0
    3.7819   -1.2344    0.1819 C   0  0  2  0  0  0  0  0  0  0  0  0
    4.1496   -2.4184   -0.4202 O   0  0  0  0  0  0  0  0  0  0  0  0
    2.3130   -0.9395    0.0191 C   0  0  1  0  0  0  0  0  0  0  0  0
    2.0280   -0.8509   -1.3416 O   0  0  0  0  0  0  0  0  0  0  0  0
    1.5015   -2.0246    0.6842 C   0  0  0  0  0  3  0  0  0  0  0  0
    0.0853   -1.7521    0.5345 N   0  0  0  0  0  0  0  0  0  0  0  0
   -0.1844   -0.3134    0.6737 C   0  0  0  0  0  3  0  0  0  0  0  0
   -1.6690   -0.1903    0.9200 C   0  0  0  0  0  0  0  0  0  0  0  0
   -2.0698    1.1301    1.0725 O   0  0  0  0  0  0  0  0  0  0  0  0
   -3.4439    1.1716    1.0342 C   0  0  1  0  0  0  0  0  0  0  0  0
   -4.0567    1.2008    2.4233 C   0  0  0  0  0  0  0  0  0  0  0  0
   -5.4427    1.2416    2.2506 O   0  0  0  0  0  0  0  0  0  0  0  0
   -3.9668    2.3017    0.1772 C   0  0  1  0  0  0  0  0  0  0  0  0
   -2.8465    3.2984   -0.0517 C   0  0  0  0  0  2  0  0  0  0  0  0
   -4.3932    1.7506   -1.0310 O   0  0  0  0  0  0  0  0  0  0  0  0
   -4.4017    0.3535   -0.9976 C   0  0  0  0  0  0  0  0  0  0  0  0
   -2.9789   -0.1678   -1.2204 C   0  0  0  0  0  3  0  0  0  0  0  0
   -2.4983   -0.9566   -0.0521 C   0  0  1  0  0  0  0  0  0  0  0  0
   -1.8849   -2.1431   -0.3782 O   0  0  0  0  0  0  0  0  0  0  0  0
   -2.5603   -2.8676   -1.2298 O   0  0  0  0  0  0  0  0  0  0  0  0
  1  2  1  0
  2  3  1  0
  3  4  1  0
  4  5  1  1
  4  6  1  0
  6  7  1  6
  6  8  1  0
  8  9  1  6
  8 10  1  0
 10 11  1  0
 11 12  1  0
 12 13  1  0
 13 14  1  0
 14 15  1  0
 15 16  1  1
 16 17  1  0
 15 18  1  0
 18 19  1  6
 18 20  1  0
 20 21  1  0
 21 22  1  0
 22 23  1  0
 23 24  1  6
 24 25  1  0
 23 13  1  0
M  RAD  5   2   2  10   2  12   2  19   3  22   2
M  END
$$$$
