
     RDKit          3D

 14 14  0  0  0  0  0  0  0  0999 V2000
   -1.0178   -1.9307    0.1282 C   0  0  0  0  0  0  0  0  0  0  0  0
   -0.1413   -2.1059   -1.0404 C   0  0  0  0  0  0  0  0  0  0  0  0
    1.0958   -1.6665   -0.9412 C   0  0  0  0  0  0  0  0  0  0  0  0
    1.6638   -1.0289    0.2145 C   0  0  0  0  0  0  0  0  0  0  0  0
    1.7747    0.2584    0.4083 C   0  0  0  0  0  0  0  0  0  0  0  0
    2.3602    0.8146    1.6024 N   0  0  0  0  0  2  0  0  0  0  0  0
    3.6220    0.3758    1.7313 O   0  0  0  0  0  0  0  0  0  0  0  0
    1.2798    1.1877   -0.6396 C   0  0  0  0  0  0  0  0  0  0  0  0
   -0.0279    1.8144   -0.2956 C   0  0  0  0  0  0  0  0  0  0  0  0
   -1.1048    1.1562   -1.0454 N   0  0  0  0  0  0  0  0  0  0  0  0
   -2.4736    1.4638   -0.7642 C   0  0  0  0  0  0  0  0  0  0  0  0
   -3.1716    0.7417    0.1128 C   0  0  0  0  0  0  0  0  0  0  0  0
   -2.5493   -0.3748    0.8002 C   0  0  0  0  0  0  0  0  0  0  0  0
   -1.3100   -0.7057    0.5073 C   0  0  0  0  0  0  0  0  0  0  0  0
  1  2  1  0
  2  3  2  3
  3  4  1  0
  4  5  2  3
  5  6  1  0
  6  7  1  0
  5  8  1  0
  8  9  1  0
  9 10  1  0
 10 11  1  0
 11 12  2  3
 12 13  1  0
 13 14  2  0
  1 14  2  0
M  CHG  1   6   1
M  RAD  1   6   3
M  END
$$$$
