
     RDKit          3D

 14 13  0  0  0  0  0  0  0  0999 V2000
   -5.1132   -1.0290   -0.9333 O   0  0  0  0  0  0  0  0  0  0  0  0
   -5.0245   -0.0645   -0.2160 C   0  0  0  0  0  0  0  0  0  0  0  0
   -3.6796    0.5057    0.1097 C   0  0  0  0  0  0  0  0  0  0  0  0
   -2.6085   -0.3070   -0.5820 C   0  0  0  0  0  0  0  0  0  0  0  0
   -1.3648    0.2391   -0.2666 O   0  0  0  0  0  0  0  0  0  0  0  0
   -0.8463    0.3597    1.0122 C   0  0  0  0  0  0  0  0  0  0  0  0
   -1.5392   -0.0511    1.9768 O   0  0  0  0  0  0  0  0  0  0  0  0
    0.4419    0.9330    1.2580 N   0  0  0  0  0  0  0  0  0  0  0  0
    1.4600    0.6428    0.5360 C   0  0  0  0  0  0  0  0  0  0  0  0
    2.2585    0.2767   -0.4088 N   0  0  0  0  0  0  0  0  0  0  0  0
    2.6661   -1.0592   -0.3615 N   0  0  0  0  0  0  0  0  0  0  0  0
    4.0327   -1.3232   -0.2355 N   0  0  0  0  0  0  0  0  0  0  0  0
    4.9340   -0.4112   -0.0940 C   0  0  0  0  0  0  0  0  0  0  0  0
    4.3828    1.2882   -0.0593 S   0  0  0  0  0  0  0  0  0  0  0  0
  1  2  2  0
  2  3  1  0
  3  4  1  0
  4  5  1  0
  5  6  1  0
  6  7  2  0
  6  8  1  0
  8  9  2  0
  9 10  2  0
 10 11  1  0
 11 12  1  0
 12 13  2  3
 13 14  1  0
M  END
$$$$
