
     RDKit          3D

 11 11  0  0  0  0  0  0  0  0999 V2000
    3.4089   -0.0259    0.5854 O   0  0  0  0  0  0  0  0  0  0  0  0
    2.3885   -0.5315   -0.1898 C   0  0  0  0  0  0  0  0  0  0  0  0
    1.1037   -0.4017    0.6265 C   0  0  1  0  0  0  0  0  0  0  0  0
    0.8143    0.9566    0.9673 N   0  0  0  0  0  0  0  0  0  0  0  0
   -0.1257    1.6071    0.1217 C   0  0  0  0  0  0  0  0  0  0  0  0
   -1.4376    0.8865   -0.0139 C   0  0  2  0  0  0  0  0  0  0  0  0
   -2.4599    1.5441    0.6524 O   0  0  0  0  0  0  0  0  0  0  0  0
   -1.3422   -0.5598    0.4172 C   0  0  1  0  0  0  0  0  0  0  0  0
   -2.4082   -1.2436   -0.1776 O   0  0  0  0  0  0  0  0  0  0  0  0
   -0.0298   -1.1232   -0.0367 C   0  0  1  0  0  0  0  0  0  0  0  0
    0.0880   -1.1087   -1.4304 O   0  0  0  0  0  0  0  0  0  0  0  0
  1  2  1  0
  3  2  1  6
  3  4  1  0
  4  5  1  0
  5  6  1  0
  6  7  1  1
  6  8  1  0
  8  9  1  6
  8 10  1  0
 10 11  1  6
 10  3  1  0
M  END
$$$$
