
     RDKit          3D

 18 19  0  0  0  0  0  0  0  0999 V2000
   -1.7412   -1.7653   -0.4358 C   0  0  0  0  0  0  0  0  0  0  0  0
   -2.3508   -1.4417   -1.6777 O   0  0  0  0  0  0  0  0  0  0  0  0
   -3.4609   -0.5501   -1.7960 C   0  0  0  0  0  0  0  0  0  0  0  0
   -3.4575    0.6382   -1.0722 C   0  0  0  0  0  0  0  0  0  0  0  0
   -2.4226    0.9948   -0.1438 C   0  0  0  0  0  0  0  0  0  0  0  0
   -1.1178    0.6416   -0.3696 C   0  0  0  0  0  0  0  0  0  0  0  0
   -0.8634   -0.7712    0.2032 C   0  0  0  0  0  0  0  0  0  0  0  0
    0.4917   -1.0259   -0.0502 O   0  0  0  0  0  0  0  0  0  0  0  0
    1.0818   -1.0698   -1.2863 C   0  0  0  0  0  0  0  0  0  0  0  0
    2.3340   -0.6409   -1.3954 C   0  0  0  0  0  0  0  0  0  0  0  0
    3.0823   -0.1293   -0.2317 C   0  0  0  0  0  0  0  0  0  0  0  0
    4.3321    0.2683   -0.4879 C   0  0  0  0  0  0  0  0  0  0  0  0
    5.0908    0.7835    0.6752 C   0  0  0  0  0  0  0  0  0  0  0  0
    6.3336    1.2075    0.5586 C   0  0  0  0  0  0  0  0  0  0  0  0
   -1.0223   -0.6437    1.6894 C   0  0  0  0  0  0  0  0  0  0  0  0
   -1.1647    0.4367    2.4884 C   0  0  0  0  0  0  0  0  0  0  0  0
   -2.2839    1.4023    2.2850 C   0  0  0  0  0  0  0  0  0  0  0  0
   -2.8610    1.6652    1.0470 C   0  0  0  0  0  0  0  0  0  0  0  0
  1  2  1  0
  2  3  1  0
  3  4  2  0
  4  5  1  0
  5  6  2  0
  6  7  1  0
  7  8  1  0
  8  9  1  0
  9 10  2  3
 10 11  1  0
 11 12  2  3
 12 13  1  0
 13 14  2  0
  7 15  1  0
 15 16  2  0
 16 17  1  0
 17 18  2  0
  7  1  1  0
 18  5  1  0
M  END
$$$$
