
     RDKit          3D

 32 34  0  0  0  0  0  0  0  0999 V2000
   -0.7762   -2.9284    1.2229 C   0  0  0  0  0  0  0  0  0  0  0  0
    0.1216   -2.1508    0.4780 C   0  0  0  0  0  0  0  0  0  0  0  0
    0.7146   -1.0555    0.3927 C   0  0  0  0  0  0  0  0  0  0  0  0
    1.5130   -1.3081   -0.9328 C   0  0  0  0  0  0  0  0  0  0  0  0
    2.2964   -0.4589   -1.6395 C   0  0  0  0  0  0  0  0  0  0  0  0
    2.5452   -0.9405   -2.9672 C   0  0  0  0  0  0  0  0  0  0  0  0
    3.2782   -0.3068   -3.8654 C   0  0  0  0  0  0  0  0  0  0  0  0
    3.5037   -0.8514   -5.2273 C   0  0  0  0  0  0  0  0  0  0  0  0
    2.9495    0.8340   -1.3514 C   0  0  0  0  0  0  0  0  0  0  0  0
    4.3184    0.6726   -1.1746 F   0  0  0  0  0  0  0  0  0  0  0  0
    2.4302    1.6354   -0.2661 C   0  0  0  0  0  0  0  0  0  0  0  0
    1.1154    2.3956   -0.0729 C   0  0  0  0  0  0  0  0  0  0  0  0
    3.4840    1.4783    0.5595 C   0  0  0  0  0  0  0  0  0  0  0  0
    3.4230    1.4301    2.0739 C   0  0  0  0  0  0  0  0  0  0  0  0
    2.5854    0.7009    2.8842 C   0  0  0  0  0  0  0  0  0  0  0  0
    1.3776   -0.0638    2.2418 C   0  0  0  0  0  0  0  0  0  0  0  0
    0.7157    0.1611    1.1244 C   0  0  0  0  0  0  0  0  0  0  0  0
    0.1930    1.4481    0.6422 N   0  0  0  0  0  0  0  0  0  0  0  0
   -1.0484    1.9957    0.6802 C   0  0  0  0  0  0  0  0  0  0  0  0
   -2.2297    1.6280    0.2812 C   0  0  0  0  0  0  0  0  0  0  0  0
   -3.4541    2.5122    0.4884 C   0  0  0  0  0  0  0  0  0  0  0  0
   -3.0679    3.7802    1.1819 C   0  0  0  0  0  0  0  0  0  0  0  0
   -4.3126    4.6094    1.3583 C   0  0  0  0  0  0  0  0  0  0  0  0
   -2.3812    0.3408   -0.3781 C   0  0  0  0  0  0  0  0  0  0  0  0
   -1.8107    0.0314   -1.5587 C   0  0  0  0  0  0  0  0  0  0  0  0
   -2.0069   -1.2792   -2.1594 C   0  0  0  0  0  0  0  0  0  0  0  0
   -1.5081   -1.6293   -3.5138 C   0  0  0  0  0  0  0  0  0  0  0  0
   -2.6454   -2.1992   -1.4965 C   0  0  0  0  0  0  0  0  0  0  0  0
   -3.2327   -1.9569   -0.3547 C   0  0  0  0  0  0  0  0  0  0  0  0
   -3.4715   -2.9560    0.6481 C   0  0  0  0  0  0  0  0  0  0  0  0
   -2.8958   -3.0280    1.7957 C   0  0  0  0  0  0  0  0  0  0  0  0
   -1.7237   -2.5408    2.0137 C   0  0  0  0  0  0  0  0  0  0  0  0
  1  2  1  0
  2  3  2  3
  3  4  1  0
  4  5  2  3
  5  6  1  0
  6  7  2  3
  7  8  1  0
  5  9  1  0
  9 10  1  0
  9 11  1  0
 11 12  1  0
 11 13  2  3
 13 14  1  0
 14 15  2  3
 15 16  1  0
 16 17  2  3
 17 18  1  0
 18 19  1  0
 19 20  2  3
 20 21  1  0
 21 22  1  0
 22 23  1  0
 20 24  1  0
 24 25  2  3
 25 26  1  0
 26 27  1  0
 26 28  2  0
 28 29  2  0
 29 30  1  0
 30 31  2  0
 31 32  2  0
  1 32  2  0
 17  3  1  0
 18 12  1  0
M  END
$$$$
