
     RDKit          3D

 10 10  0  0  0  0  0  0  0  0999 V2000
   -2.0160   -0.7988    0.5211 O   0  0  0  0  0  0  0  0  0  0  0  0
   -2.1927    0.0410   -0.3853 C   0  0  0  0  0  0  0  0  0  0  0  0
   -3.5120    0.3542   -0.7844 N   0  0  0  0  0  0  0  0  0  0  0  0
   -1.0765    0.7278   -1.0652 C   0  0  0  0  0  0  0  0  0  0  0  0
    0.2405    0.3154   -0.5603 C   0  0  0  0  0  0  0  0  0  0  0  0
    0.7758    1.0329    0.5006 C   0  0  0  0  0  0  0  0  0  0  0  0
    2.0187    0.6329    0.9666 C   0  0  0  0  0  0  0  0  0  0  0  0
    2.6910   -0.4243    0.4058 C   0  0  0  0  0  0  0  0  0  0  0  0
    2.1602   -1.1366   -0.6470 C   0  0  0  0  0  0  0  0  0  0  0  0
    0.9109   -0.7445   -1.1250 C   0  0  0  0  0  0  0  0  0  0  0  0
  1  2  2  0
  2  3  1  0
  2  4  1  0
  4  5  1  0
  5  6  2  0
  6  7  1  0
  7  8  2  0
  8  9  1  0
  9 10  2  0
 10  5  1  0
M  END
$$$$
