
     RDKit          3D

  8  7  0  0  0  0  0  0  0  0999 V2000
   -0.7588    1.3857   -1.1775 O   0  0  0  0  0  0  0  0  0  0  0  0
   -1.0563    0.3474   -0.5344 C   0  0  0  0  0  0  0  0  0  0  0  0
   -2.4316   -0.0351   -0.5173 N   0  0  0  0  0  0  0  0  0  0  0  0
   -2.9929   -0.1317    0.6575 C   0  0  0  0  0  0  0  0  0  0  0  0
   -0.0422   -0.3776    0.1267 N   0  0  0  0  0  0  0  0  0  0  0  0
    1.3217    0.1081    0.0385 C   0  0  0  0  0  0  0  0  0  0  0  0
    2.2902   -0.7593    0.7870 C   0  0  0  0  0  0  0  0  0  0  0  0
    3.6699   -0.1509    0.6194 C   0  0  0  0  0  0  0  0  0  0  0  0
  1  2  2  0
  2  3  1  0
  3  4  2  0
  2  5  1  0
  5  6  1  0
  6  7  1  0
  7  8  1  0
M  END
$$$$
