
     RDKit          3D

 15 15  0  0  0  0  0  0  0  0999 V2000
   -2.4038   -0.7389    1.3553 C   0  0  0  0  0  0  0  0  0  0  0  0
   -3.0810   -0.4797    2.5982 C   0  0  0  0  0  0  0  0  0  0  0  0
   -4.0675    0.3777    2.7882 C   0  0  0  0  0  0  0  0  0  0  0  0
   -4.5583    1.2729    1.2998 S   0  0  0  0  0  0  0  0  0  0  0  0
   -3.6774    0.8496   -0.0260 C   0  0  0  0  0  0  0  0  0  0  0  0
   -2.6558   -0.1623    0.1962 C   0  0  0  0  0  0  0  0  0  0  0  0
   -1.6631   -0.6645   -1.2133 S   0  0  0  0  0  0  0  0  0  0  0  0
   -0.2188    0.0562   -1.5611 C   0  0  0  0  0  0  0  0  0  0  0  0
    0.4570   -0.4017   -2.6570 O   0  0  0  0  0  0  0  0  0  0  0  0
    1.8029   -0.3379   -2.8771 C   0  0  0  0  0  0  0  0  0  0  0  0
    2.7257   -0.0275   -2.0124 C   0  0  0  0  0  0  0  0  0  0  0  0
    2.4648    0.3935   -0.3188 S   0  0  0  0  0  0  0  0  0  0  0  0
    3.8275   -0.1946    0.6386 N   0  0  0  0  0  0  0  0  0  0  0  0
    4.9786    0.4215    0.5263 C   0  0  0  0  0  0  0  0  0  0  0  0
    6.0692   -0.0135    1.2629 O   0  0  0  0  0  1  0  0  0  0  0  0
  1  2  1  0
  2  3  2  0
  3  4  1  0
  4  5  2  0
  5  6  1  0
  6  7  1  0
  7  8  2  3
  8  9  1  0
  9 10  1  0
 10 11  2  3
 11 12  1  0
 12 13  1  0
 13 14  2  3
 14 15  1  0
  1  6  2  0
M  CHG  1  15  -1
M  END
$$$$
