
     RDKit          3D

 13 12  0  0  0  0  0  0  0  0999 V2000
    2.4921    2.7813    0.2830 C   0  0  0  0  0  0  0  0  0  0  0  0
    3.2580    1.6410    0.4771 O   0  0  0  0  0  0  0  0  0  0  0  0
    3.0403    0.7063   -0.5215 C   0  0  0  0  0  3  0  0  0  0  0  0
    1.7130    0.3410   -0.6279 O   0  0  0  0  0  0  0  0  0  0  0  0
    1.3227   -0.5836    0.3473 C   0  0  2  0  0  0  0  0  0  0  0  0
    1.8581   -1.9411   -0.0867 C   0  0  0  0  0  0  0  0  0  0  0  0
    0.7189   -2.9179   -0.3461 C   0  0  0  0  0  2  0  0  0  0  0  0
   -0.1923   -0.6174    0.2956 C   0  0  0  0  0  3  0  0  0  0  0  0
   -0.7812    0.0840    1.3372 O   0  0  0  0  0  0  0  0  0  0  0  0
   -2.1567   -0.1922    1.2606 C   0  0  0  0  0  3  0  0  0  0  0  0
   -2.8894    0.9550    0.6229 C   0  0  0  0  0  3  0  0  0  0  0  0
   -4.0095    0.5280   -0.2782 C   0  0  0  0  0  0  0  0  0  0  0  0
   -4.3739   -0.7845   -0.0418 O   0  0  0  0  0  0  0  0  0  0  0  0
  1  2  1  0
  2  3  1  0
  3  4  1  0
  4  5  1  0
  5  6  1  6
  6  7  1  0
  5  8  1  0
  8  9  1  0
  9 10  1  0
 10 11  1  0
 11 12  1  0
 12 13  1  0
M  RAD  5   3   2   7   3   8   2  10   2  11   2
M  END
$$$$
