
     RDKit          3D

 21 20  0  0  0  0  0  0  0  0999 V2000
   -5.6936    1.1478    1.1871 C   0  0  0  0  0  0  0  0  0  0  0  0
   -5.4241    1.8670   -0.0836 C   0  0  0  0  0  0  0  0  0  0  0  0
   -4.2203    1.8778   -0.6633 C   0  0  0  0  0  0  0  0  0  0  0  0
   -3.1340    1.1115    0.0454 C   0  0  0  0  0  0  0  0  0  0  0  0
   -3.3529    1.3875    1.5539 C   0  0  0  0  0  0  0  0  0  0  0  0
   -1.7912    1.6501   -0.2900 C   0  0  0  0  0  0  0  0  0  0  0  0
   -3.3805   -0.1980   -0.1386 O   0  0  0  0  0  0  0  0  0  0  0  0
   -2.5382   -1.0523    0.4396 C   0  0  0  0  0  0  0  0  0  0  0  0
   -1.1629   -1.1391   -0.0429 C   0  0  0  0  0  0  0  0  0  0  0  0
   -0.7431   -0.5821   -1.0847 O   0  0  0  0  0  0  0  0  0  0  0  0
   -0.1725   -1.8942    0.6683 N   0  0  0  0  0  0  0  0  0  0  0  0
    1.1526   -2.1155    0.4215 C   0  0  0  0  0  0  0  0  0  0  0  0
    1.6407   -3.2911   -0.3060 C   0  0  0  0  0  0  0  0  0  0  0  0
    2.1567   -1.0095    0.6323 C   0  0  0  0  0  0  0  0  0  0  0  0
    3.3877   -1.5784    0.3269 O   0  0  0  0  0  0  0  0  0  0  0  0
    4.4320   -0.8808    0.4687 O   0  0  0  0  0  0  0  0  0  0  0  0
    4.5460    0.2810   -0.0334 O   0  0  0  0  0  0  0  0  0  0  0  0
    5.2114    1.0944    0.8093 N   0  0  0  0  0  0  0  0  0  0  0  0
    5.0031    2.7717    0.2916 S   0  0  0  0  0  0  0  0  0  0  0  0
    1.7616    0.0755   -0.2904 C   0  0  0  0  0  0  0  0  0  0  0  0
    2.3217    0.4766   -1.2613 O   0  0  0  0  0  0  0  0  0  0  0  0
  1  2  1  0
  2  3  2  3
  3  4  1  0
  4  5  1  0
  4  6  1  0
  4  7  1  0
  7  8  1  0
  8  9  1  0
  9 10  2  0
  9 11  1  0
 11 12  1  0
 12 13  1  0
 12 14  1  0
 14 15  1  0
 15 16  1  0
 16 17  1  0
 17 18  1  0
 18 19  1  0
 14 20  1  0
 20 21  2  0
M  END
$$$$
