
     RDKit          3D

 44 44  0  0  0  0  0  0  0  0999 V2000
    2.0090    6.4387   -2.9614 O   0  0  0  0  0  0  0  0  0  0  0  0
    2.3628    6.2187   -1.7820 C   0  0  0  0  0  0  0  0  0  0  0  0
    1.8497    6.9329   -0.6839 N   0  0  0  0  0  0  0  0  0  0  0  0
    3.3670    5.1553   -1.5445 C   0  0  0  0  0  0  0  0  0  0  0  0
    3.7989    4.4972   -2.8297 C   0  0  0  0  0  0  0  0  0  0  0  0
    2.5750    3.8819   -3.4776 C   0  0  0  0  0  0  0  0  0  0  0  0
    2.0176    2.8621   -2.5130 C   0  0  0  0  0  0  0  0  0  0  0  0
    1.6144    3.4706   -1.2054 C   0  0  0  0  0  3  0  0  0  0  0  0
    1.1009    2.4411   -0.3289 N   0  0  0  0  0  0  0  0  0  0  0  0
    2.1019    1.9276    0.4985 N   0  0  0  0  0  0  0  0  0  0  0  0
    2.7314    0.6769    0.1853 C   0  0  0  0  0  0  0  0  0  0  0  0
    2.3272    0.0950   -0.8564 O   0  0  0  0  0  0  0  0  0  0  0  0
    3.8044    0.1038    1.0503 C   0  0  0  0  0  0  0  0  0  0  0  0
    4.2191   -1.1538    0.4568 N   0  0  0  0  0  0  0  0  0  0  0  0
    5.2259   -1.8973    1.1102 C   0  0  0  0  0  0  0  0  0  0  0  0
    5.7179   -1.4309    2.1718 O   0  0  0  0  0  0  0  0  0  0  0  0
    5.7295   -3.1584    0.6466 N   0  0  0  0  0  0  0  0  0  0  0  0
    6.7376   -3.8680    1.3429 C   0  0  0  0  0  0  0  0  0  0  0  0
    7.8673   -4.1459    0.7341 C   0  0  0  0  0  0  0  0  0  0  0  0
    8.1042   -3.7326   -0.6595 C   0  0  0  0  0  0  0  0  0  0  0  0
    9.2658   -2.8687   -0.7405 N   0  0  0  0  0  0  0  0  0  0  0  0
   10.3555   -3.2809   -0.4626 O   0  0  0  0  0  0  0  0  0  0  0  0
   -0.1735    3.0668    0.7452 S   0  0  0  0  0  0  0  0  0  0  0  0
   -1.3108    1.7334    1.1140 C   0  0  0  0  0  0  0  0  0  0  0  0
   -0.9927    0.5015    0.8231 C   0  0  0  0  0  0  0  0  0  0  0  0
   -1.7716   -0.7139    1.0426 C   0  0  0  0  0  0  0  0  0  0  0  0
   -2.3609   -1.0022    2.6842 S   0  0  0  0  0  0  0  0  0  0  0  0
   -4.1134   -0.9678    2.8825 C   0  0  0  0  0  0  0  0  0  0  0  0
   -4.6289    0.1430    3.2525 O   0  0  0  0  0  0  0  0  0  0  0  0
   -4.9882   -2.0389    2.6729 N   0  0  0  0  0  0  0  0  0  0  0  0
   -4.4923   -3.6852    2.3031 S   0  0  0  0  0  0  0  0  0  0  0  0
   -5.4686   -4.2611    0.8994 C   0  0  0  0  0  0  0  0  0  0  0  0
   -5.1694   -3.8804   -0.3162 C   0  0  0  0  0  0  0  0  0  0  0  0
   -3.9628   -3.9653   -0.7520 C   0  0  0  0  0  0  0  0  0  0  0  0
   -3.4535   -3.0686   -1.5293 C   0  0  0  0  0  0  0  0  0  0  0  0
   -2.9189   -1.8468   -1.0866 N   0  0  0  0  0  0  0  0  0  0  0  0
   -3.2033   -0.7121   -0.1452 S   0  0  0  0  0  0  0  0  0  0  0  0
   -3.7174    0.9432   -0.6157 C   0  0  0  0  0  0  0  0  0  0  0  0
   -4.9864    0.9322   -1.3737 C   0  0  0  0  0  0  0  0  0  0  0  0
   -6.1541    0.3666   -0.6631 C   0  0  0  0  0  0  0  0  0  0  0  0
   -6.1088   -0.0404    0.5181 O   0  0  0  0  0  0  0  0  0  0  0  0
   -7.4264    0.2551   -1.3153 N   0  0  0  0  0  0  0  0  0  0  0  0
   -8.8429   -0.4062   -0.5205 S   0  0  0  0  0  0  0  0  0  0  0  0
   -8.6384   -0.5182    1.2291 N   0  0  0  0  0  0  0  0  0  0  0  0
  1  2  2  0
  2  3  1  0
  2  4  1  0
  4  5  1  0
  5  6  1  0
  6  7  1  0
  7  8  1  0
  8  9  1  0
  9 10  1  0
 10 11  1  0
 11 12  2  0
 11 13  1  0
 13 14  1  0
 14 15  1  0
 15 16  2  0
 15 17  1  0
 17 18  1  0
 18 19  2  3
 19 20  1  0
 20 21  1  0
 21 22  2  0
  9 23  1  0
 23 24  1  0
 24 25  2  3
 25 26  1  0
 26 27  1  0
 27 28  1  0
 28 29  2  0
 28 30  1  0
 30 31  1  0
 31 32  1  0
 32 33  2  0
 33 34  2  0
 34 35  2  0
 35 36  1  0
 36 37  1  0
 37 38  1  0
 38 39  1  0
 39 40  1  0
 40 41  2  0
 40 42  1  0
 42 43  1  0
 43 44  1  0
 37 26  1  0
M  RAD  1   8   2
M  END
$$$$
