
     RDKit          3D

  9  8  0  0  0  0  0  0  0  0999 V2000
   -0.6190    0.9801   -0.7189 O   0  0  0  0  0  0  0  0  0  0  0  0
   -0.3049    0.8008    0.4509 C   0  0  0  0  0  0  0  0  0  0  0  0
   -1.3035   -0.1309    1.6041 S   0  0  0  0  0  0  0  0  0  0  0  0
   -2.7801   -0.6857    0.7048 C   0  0  0  0  0  0  0  0  0  0  0  0
   -2.3043   -1.6734   -0.3738 C   0  0  0  0  0  0  0  0  0  0  0  0
    0.9749    1.4022    0.8892 C   0  0  0  0  0  0  0  0  0  0  0  0
    2.0296    0.4061    1.2581 C   0  0  0  0  0  0  0  0  0  0  0  0
    2.4010   -0.5159    0.1866 C   0  0  0  0  0  0  0  0  0  0  0  0
    1.9063   -0.5833   -1.0286 C   0  0  0  0  0  0  0  0  0  0  0  0
  1  2  2  0
  2  3  1  0
  3  4  1  0
  4  5  1  0
  2  6  1  0
  6  7  1  0
  7  8  1  0
  8  9  2  0
M  END
$$$$
