
     RDKit          3D

 20 22  0  0  0  0  0  0  0  0999 V2000
   -0.1281    3.8565   -0.1240 O   0  0  0  0  0  0  0  0  0  0  0  0
    0.0453    2.6377   -0.0049 C   0  0  0  0  0  0  0  0  0  0  0  0
   -1.2247    1.9577    0.0684 N   0  0  0  0  0  0  0  0  0  0  0  0
   -1.6290    0.5935    0.2282 C   0  0  0  0  0  0  0  0  0  0  0  0
   -2.9527    0.6095    0.6309 C   0  0  0  0  0  0  0  0  0  0  0  0
   -3.6392   -0.5619    0.8714 C   0  0  0  0  0  0  0  0  0  0  0  0
   -5.3250   -0.5372    1.3841 Cl  0  0  0  0  0  0  0  0  0  0  0  0
   -2.9544   -1.7455    0.6948 C   0  0  0  0  0  0  0  0  0  0  0  0
   -1.6198   -1.7566    0.2887 C   0  0  0  0  0  0  0  0  0  0  0  0
   -0.7417   -3.2566    0.0617 Cl  0  0  0  0  0  0  0  0  0  0  0  0
   -0.9368   -0.5839    0.0491 C   0  0  0  0  0  0  0  0  0  0  0  0
    1.3973    2.1855    0.0330 N   0  0  0  0  0  0  0  0  0  0  0  0
    2.0664    0.9963   -0.4386 C   0  0  0  0  0  0  0  0  0  0  0  0
    3.4816    1.1434   -0.8468 C   0  0  0  0  0  0  0  0  0  0  0  0
    4.0290   -0.2753   -0.9236 C   0  0  0  0  0  0  0  0  0  0  0  0
    2.7756   -1.1143   -1.1264 C   0  0  0  0  0  0  0  0  0  0  0  0
    1.6900   -0.2576   -0.5987 C   0  0  0  0  0  0  0  0  0  0  0  0
    0.4190   -0.9419   -0.3541 C   0  0  0  0  0  0  0  0  0  0  0  0
    0.5215   -2.1749   -0.5422 O   0  0  0  0  0  0  0  0  0  0  0  0
    4.7256   -0.7741    0.6490 Cl  0  0  0  0  0  0  0  0  0  0  0  0
  1  2  2  0
  2  3  1  0
  3  4  1  0
  4  5  2  0
  5  6  1  0
  6  7  1  0
  6  8  2  0
  8  9  1  0
  9 10  1  0
  9 11  2  0
  2 12  1  0
 12 13  1  0
 13 14  1  0
 14 15  1  0
 15 16  1  0
 16 17  1  0
 17 18  1  0
 18 19  2  0
 15 20  1  0
 11  4  1  0
 18 11  1  0
 13 17  2  0
M  END
$$$$
