
     RDKit          3D

 16 16  0  0  0  0  0  0  0  0999 V2000
    1.2102    0.7931   -0.5546 O   0  0  0  0  0  0  0  0  0  0  0  0
    1.4459   -0.4510   -0.4490 C   0  0  0  0  0  0  0  0  0  0  0  0
    0.3102   -1.3064   -0.3986 N   0  0  0  0  0  0  0  0  0  0  0  0
   -1.0063   -0.7689   -0.4650 C   0  0  0  0  0  0  0  0  0  0  0  0
   -1.2260    0.5846   -0.5792 C   0  0  0  0  0  0  0  0  0  0  0  0
   -2.5269    1.0964   -0.6432 C   0  0  0  0  0  0  0  0  0  0  0  0
   -2.6723    2.8274   -0.7870 Cl  0  0  0  0  0  0  0  0  0  0  0  0
   -3.5780    0.2379   -0.5912 C   0  0  0  0  0  0  0  0  0  0  0  0
   -3.4021   -1.1253   -0.4769 C   0  0  0  0  0  0  0  0  0  0  0  0
   -4.4770   -1.9784   -0.4257 F   0  0  0  0  0  0  0  0  0  0  0  0
   -2.1075   -1.5965   -0.4163 C   0  0  0  0  0  0  0  0  0  0  0  0
    2.7777   -0.9259   -0.3875 N   0  0  0  0  0  0  0  0  0  0  0  0
    3.8655    0.0398   -0.4477 C   0  0  0  0  0  0  0  0  0  0  0  0
    3.7731    1.0117    0.6919 C   0  0  0  0  0  0  0  0  0  0  0  0
    3.8516    0.3105    2.0299 C   0  0  0  0  0  0  0  0  0  0  0  0
    3.7618    1.2509    3.0375 F   0  0  0  0  0  0  0  0  0  0  0  0
  1  2  2  0
  2  3  1  0
  3  4  1  0
  4  5  2  0
  5  6  1  0
  6  7  1  0
  6  8  2  0
  8  9  1  0
  9 10  1  0
  9 11  2  0
  2 12  1  0
 12 13  1  0
 13 14  1  0
 14 15  1  0
 15 16  1  0
 11  4  1  0
M  END
$$$$
