
     RDKit          3D

 20 22  0  0  0  0  0  0  0  0999 V2000
    0.0669    3.7836    0.9101 O   0  0  0  0  0  0  0  0  0  0  0  0
    0.1304    2.5523    0.6022 C   0  0  0  0  0  0  0  0  0  0  0  0
   -1.1219    1.8624    0.7140 N   0  0  0  0  0  0  0  0  0  0  0  0
   -1.6098    0.6026    0.2984 C   0  0  0  0  0  0  0  0  0  0  0  0
   -2.9875    0.6657    0.2954 C   0  0  0  0  0  0  0  0  0  0  0  0
   -3.7667   -0.4155   -0.0675 C   0  0  0  0  0  0  0  0  0  0  0  0
   -5.5274   -0.3068   -0.0623 Cl  0  0  0  0  0  0  0  0  0  0  0  0
   -3.1346   -1.5843   -0.4346 C   0  0  0  0  0  0  0  0  0  0  0  0
   -1.7596   -1.6471   -0.4315 C   0  0  0  0  0  0  0  0  0  0  0  0
   -1.1268   -2.7871   -0.7893 F   0  0  0  0  0  0  0  0  0  0  0  0
   -0.9593   -0.5643   -0.0678 C   0  0  0  0  0  0  0  0  0  0  0  0
    1.4246    2.1051    0.2098 N   0  0  0  0  0  0  0  0  0  0  0  0
    2.1229    0.8680    0.1812 C   0  0  0  0  0  0  0  0  0  0  0  0
    3.6218    0.9089    0.3529 C   0  0  0  0  0  0  0  0  0  0  0  0
    4.0208   -0.4007   -0.2305 C   0  0  0  0  0  0  0  0  0  0  0  0
    2.8928   -1.3075    0.0778 C   0  0  0  0  0  0  0  0  0  0  0  0
    1.7293   -0.3915    0.0220 C   0  0  0  0  0  0  0  0  0  0  0  0
    0.4152   -1.0118   -0.1891 C   0  0  0  0  0  0  0  0  0  0  0  0
    0.5492   -2.2013   -0.5584 O   0  0  0  0  0  0  0  0  0  0  0  0
    5.0196   -0.7305   -0.8330 O   0  0  0  0  0  0  0  0  0  0  0  0
  1  2  2  0
  2  3  1  0
  3  4  1  0
  4  5  2  0
  5  6  1  0
  6  7  1  0
  6  8  2  0
  8  9  1  0
  9 10  1  0
  9 11  2  0
  2 12  1  0
 12 13  1  0
 13 14  1  0
 14 15  1  0
 15 16  1  0
 16 17  1  0
 17 18  1  0
 18 19  2  0
 15 20  2  0
 11  4  1  0
 18 11  1  0
 13 17  2  0
M  END
$$$$
