
     RDKit          3D

 20 22  0  0  0  0  0  0  0  0999 V2000
    0.3614    3.7830    0.3279 O   0  0  0  0  0  0  0  0  0  0  0  0
    0.3174    2.5285    0.4774 C   0  0  0  0  0  0  0  0  0  0  0  0
   -0.9799    1.9945    0.5217 N   0  0  0  0  0  0  0  0  0  0  0  0
   -1.5774    0.7399    0.1714 C   0  0  0  0  0  0  0  0  0  0  0  0
   -2.9522    0.9604    0.1123 C   0  0  0  0  0  0  0  0  0  0  0  0
   -3.8285   -0.0541   -0.2031 C   0  0  0  0  0  0  0  0  0  0  0  0
   -5.5658    0.2057   -0.2824 Cl  0  0  0  0  0  0  0  0  0  0  0  0
   -3.2997   -1.3002   -0.4595 C   0  0  0  0  0  0  0  0  0  0  0  0
   -1.9187   -1.5213   -0.3999 C   0  0  0  0  0  0  0  0  0  0  0  0
   -1.3837   -2.7380   -0.6488 F   0  0  0  0  0  0  0  0  0  0  0  0
   -1.0460   -0.5033   -0.0841 C   0  0  0  0  0  0  0  0  0  0  0  0
    1.6444    1.9809    0.5630 N   0  0  0  0  0  0  0  0  0  0  0  0
    2.1481    0.6689    0.3479 C   0  0  0  0  0  0  0  0  0  0  0  0
    3.6510    0.5956    0.4306 C   0  0  0  0  0  0  0  0  0  0  0  0
    3.9224   -0.6322   -0.4551 C   0  0  0  0  0  0  0  0  0  0  0  0
    2.7692   -1.5109   -0.0236 C   0  0  0  0  0  0  0  0  0  0  0  0
    1.6665   -0.5302    0.0872 C   0  0  0  0  0  0  0  0  0  0  0  0
    0.3108   -1.0389   -0.1022 C   0  0  0  0  0  0  0  0  0  0  0  0
    0.2696   -2.2854   -0.3526 O   0  0  0  0  0  0  0  0  0  0  0  0
    5.4911   -1.3429   -0.0282 Cl  0  0  0  0  0  0  0  0  0  0  0  0
  1  2  2  0
  2  3  1  0
  3  4  1  0
  4  5  2  0
  5  6  1  0
  6  7  1  0
  6  8  2  0
  8  9  1  0
  9 10  1  0
  9 11  2  0
  2 12  1  0
 12 13  1  0
 13 14  1  0
 14 15  1  0
 15 16  1  0
 16 17  1  0
 17 18  1  0
 18 19  2  0
 15 20  1  0
 11  4  1  0
 18 11  1  0
 13 17  2  0
M  END
$$$$
