
     RDKit          3D

 20 22  0  0  0  0  0  0  0  0999 V2000
    0.0078   -3.7601   -1.1702 O   0  0  0  0  0  0  0  0  0  0  0  0
   -0.1273   -2.5982   -0.6897 C   0  0  0  0  0  0  0  0  0  0  0  0
    1.1297   -2.0038   -0.2976 N   0  0  0  0  0  0  0  0  0  0  0  0
    1.5804   -0.6604   -0.1333 C   0  0  0  0  0  0  0  0  0  0  0  0
    2.9530   -0.6773   -0.0390 C   0  0  0  0  0  0  0  0  0  0  0  0
    3.6683    0.5155    0.1287 C   0  0  0  0  0  0  0  0  0  0  0  0
    5.4169    0.4614    0.2457 Cl  0  0  0  0  0  0  0  0  0  0  0  0
    2.9719    1.7050    0.1974 C   0  0  0  0  0  0  0  0  0  0  0  0
    1.5824    1.7058    0.1003 C   0  0  0  0  0  0  0  0  0  0  0  0
    0.6498    3.1858    0.1812 Cl  0  0  0  0  0  0  0  0  0  0  0  0
    0.8832    0.5278   -0.0648 C   0  0  0  0  0  0  0  0  0  0  0  0
   -1.5005   -2.2239   -0.6817 N   0  0  0  0  0  0  0  0  0  0  0  0
   -2.1936   -1.0296   -0.2906 C   0  0  0  0  0  0  0  0  0  0  0  0
   -3.6275   -1.2271   -0.0958 C   0  0  0  0  0  0  0  0  0  0  0  0
   -4.2989   -0.0087    0.2975 C   0  0  0  0  0  0  0  0  0  0  0  0
   -3.1825    1.1443    0.3755 S   0  0  0  0  0  0  0  0  0  0  0  0
   -1.7786    0.1811   -0.0820 C   0  0  0  0  0  0  0  0  0  0  0  0
   -0.5230    0.9138   -0.1249 C   0  0  0  0  0  0  0  0  0  0  0  0
   -0.6420    2.1638   -0.2392 O   0  0  0  0  0  0  0  0  0  0  0  0
   -2.9694    1.6849    2.3825 Cl  0  0  0  0  0  0  0  0  0  0  0  0
  1  2  2  0
  2  3  1  0
  3  4  1  0
  4  5  2  0
  5  6  1  0
  6  7  1  0
  6  8  2  0
  8  9  1  0
  9 10  1  0
  9 11  2  0
  2 12  1  0
 12 13  1  0
 13 14  1  0
 14 15  1  0
 15 16  2  0
 16 17  1  0
 17 18  1  0
 18 19  2  0
 16 20  1  0
 11  4  1  0
 18 11  1  0
 13 17  2  0
M  END
$$$$
