
     RDKit          3D

 23 25  0  0  0  0  0  0  0  0999 V2000
   -1.1278   -2.3657   -2.9822 O   0  0  0  0  0  0  0  0  0  0  0  0
   -0.9294   -1.6113   -2.0163 C   0  0  0  0  0  0  0  0  0  0  0  0
   -1.9724   -0.6558   -1.8730 N   0  0  0  0  0  0  0  0  0  0  0  0
   -2.3123    0.2900   -0.8483 C   0  0  0  0  0  0  0  0  0  0  0  0
   -3.5119    0.8433   -1.2339 C   0  0  0  0  0  0  0  0  0  0  0  0
   -4.1153    1.8000   -0.4527 C   0  0  0  0  0  0  0  0  0  0  0  0
   -5.6467    2.5194   -0.9260 Cl  0  0  0  0  0  0  0  0  0  0  0  0
   -3.4737    2.1707    0.7117 C   0  0  0  0  0  0  0  0  0  0  0  0
   -2.2653    1.6108    1.0964 C   0  0  0  0  0  0  0  0  0  0  0  0
   -1.6414    1.9828    2.2452 F   0  0  0  0  0  0  0  0  0  0  0  0
   -1.6924    0.6689    0.3064 C   0  0  0  0  0  0  0  0  0  0  0  0
    0.2617   -1.8406   -1.2655 N   0  0  0  0  0  0  0  0  0  0  0  0
    0.6669   -1.8354    0.1257 C   0  0  0  0  0  0  0  0  0  0  0  0
    2.1430   -2.2718    0.1014 C   0  0  0  0  0  0  0  0  0  0  0  0
    2.9405   -0.9855    0.1072 C   0  0  0  0  0  0  0  0  0  0  0  0
    1.9062    0.1503    0.0777 C   0  0  0  0  0  0  0  0  0  0  0  0
    0.7588   -0.5067    0.7469 C   0  0  0  0  0  0  0  0  0  0  0  0
   -0.4300    0.2587    0.9594 C   0  0  0  0  0  0  0  0  0  0  0  0
   -0.4317    0.7930    2.1234 O   0  0  0  0  0  0  0  0  0  0  0  0
    3.6607   -0.8421    1.4026 C   0  0  0  0  0  0  0  0  0  0  0  0
    4.9625   -0.6403    1.4291 C   0  0  0  0  0  0  0  0  0  0  0  0
    5.7208   -0.5545    0.1594 C   0  0  0  0  0  0  0  0  0  0  0  0
    6.5291    1.0219    0.0054 Cl  0  0  0  0  0  0  0  0  0  0  0  0
  1  2  2  0
  2  3  1  0
  3  4  1  0
  4  5  2  0
  5  6  1  0
  6  7  1  0
  6  8  2  0
  8  9  1  0
  9 10  1  0
  9 11  2  0
  2 12  1  0
 12 13  1  0
 13 14  1  0
 14 15  1  0
 15 16  1  0
 16 17  1  0
 17 18  1  0
 18 19  2  0
 15 20  1  0
 20 21  2  3
 21 22  1  0
 22 23  1  0
 11  4  1  0
 18 11  1  0
 17 13  1  0
M  END
$$$$
