
     RDKit          3D

 29 33  0  0  0  0  0  0  0  0999 V2000
   -2.5287   -0.2580   -0.8649 O   0  0  0  0  0  0  0  0  0  0  0  0
   -2.2136   -0.2530    0.3564 C   0  0  0  0  0  0  0  0  0  0  0  0
   -2.9708   -1.1273    1.1970 N   0  0  0  0  0  0  0  0  0  0  0  0
   -4.0170   -1.9732    0.7333 C   0  0  0  0  0  0  0  0  0  0  0  0
   -5.2512   -2.2333    1.5467 C   0  0  0  0  0  0  0  0  0  0  0  0
   -5.2948   -1.5524    0.1772 C   0  0  0  0  0  0  0  0  0  0  0  0
   -5.8669   -0.2182    0.1765 C   0  0  0  0  0  0  0  0  0  0  0  0
   -5.7305    0.7105    1.1959 C   0  0  0  0  0  0  0  0  0  0  0  0
   -6.2989    1.9502    1.1349 C   0  0  0  0  0  0  0  0  0  0  0  0
   -7.0409    2.3060    0.0203 C   0  0  0  0  0  0  0  0  0  0  0  0
   -7.2034    1.4147   -1.0165 C   0  0  0  0  0  0  0  0  0  0  0  0
   -6.6186    0.1802   -0.9215 C   0  0  0  0  0  0  0  0  0  0  0  0
   -1.1688    0.5771    0.8492 N   0  0  0  0  0  0  0  0  0  0  0  0
   -0.5067    1.4011   -0.1788 C   0  0  0  0  0  0  0  0  0  0  0  0
   -0.0608    0.4323   -1.2672 C   0  0  0  0  0  0  0  0  0  0  0  0
    1.3234    0.8141   -1.6379 C   0  0  0  0  0  0  0  0  0  0  0  0
    2.3436   -0.0939   -1.0385 C   0  0  0  0  0  0  0  0  0  0  0  0
    3.6024    0.3772   -0.7494 N   0  0  0  0  0  0  0  0  0  0  0  0
    4.3352   -0.6351   -0.2179 C   0  0  0  0  0  0  0  0  0  0  0  0
    5.7260   -0.5601    0.2240 C   0  0  0  0  0  0  0  0  0  0  0  0
    6.3395    0.6027    0.1347 C   0  0  0  0  0  0  0  0  0  0  0  0
    7.7001    0.7421    0.5470 C   0  0  0  0  0  0  0  0  0  0  0  0
    8.4704   -0.1775    1.0337 C   0  0  0  0  0  0  0  0  0  0  0  0
    8.2216   -1.5794    1.3055 C   0  0  0  0  0  0  0  0  0  0  0  0
    6.5296   -2.0053    0.8618 S   0  0  0  0  0  0  0  0  0  0  0  0
    3.5161   -1.6838   -0.1943 N   0  0  0  0  0  0  0  0  0  0  0  0
    2.3465   -1.3267   -0.6885 O   0  0  0  0  0  0  0  0  0  0  0  0
    1.5185    2.1943   -1.0216 C   0  0  0  0  0  0  0  0  0  0  0  0
    0.7985    1.9746    0.3122 C   0  0  0  0  0  0  0  0  0  0  0  0
  1  2  2  0
  2  3  1  0
  3  4  1  0
  4  5  1  0
  5  6  1  0
  6  7  1  0
  7  8  2  0
  8  9  1  0
  9 10  2  0
 10 11  1  0
 11 12  2  0
  2 13  1  0
 13 14  1  0
 14 15  1  0
 15 16  1  0
 16 17  1  0
 17 18  2  0
 18 19  1  0
 19 20  1  0
 20 21  2  0
 21 22  1  0
 22 23  2  0
 23 24  1  0
 24 25  1  0
 19 26  2  0
 26 27  1  0
 16 28  1  0
 28 29  1  0
  6  4  1  0
 12  7  1  0
 29 14  1  0
 27 17  1  0
 25 20  1  0
M  END
$$$$
