
     RDKit          3D

 26 28  0  0  0  0  0  0  0  0999 V2000
    5.5973   -0.5576   -0.4408 C   0  0  0  0  0  0  0  0  0  0  0  0
    4.4109   -1.0666    0.3489 C   0  0  0  0  0  0  0  0  0  0  0  0
    3.9969   -2.4376   -0.0983 C   0  0  0  0  0  0  0  0  0  0  0  0
    3.3283   -0.1240    0.3849 N   0  0  0  0  0  0  0  0  0  0  0  0
    2.8690    0.0775   -0.9716 C   0  0  0  0  0  0  0  0  0  0  0  0
    1.7304    1.0323   -1.1038 C   0  0  0  0  0  0  0  0  0  0  0  0
    1.9527    2.4041   -0.6379 C   0  0  0  0  0  0  0  0  0  0  0  0
    1.5869    2.6822    0.7953 C   0  0  0  0  0  0  0  0  0  0  0  0
    0.1679    2.9365    0.8821 N   0  0  0  0  0  0  0  0  0  0  0  0
   -0.4984    1.7255    1.1891 C   0  0  0  0  0  0  0  0  0  0  0  0
   -0.3450    1.2155    2.5514 C   0  0  0  0  0  0  0  0  0  0  0  0
    0.3346    1.8500    3.3510 O   0  0  0  0  0  0  0  0  0  0  0  0
   -0.5769    0.7424    0.1649 N   0  0  0  0  0  0  0  0  0  0  0  0
   -1.8041    0.0517    0.2494 C   0  0  0  0  0  0  0  0  0  0  0  0
   -2.7008    0.4091    1.2631 C   0  0  0  0  0  0  0  0  0  0  0  0
   -3.8985   -0.2797    1.3313 C   0  0  0  0  0  0  0  0  0  0  0  0
   -5.1167    0.0698    2.5578 Cl  0  0  0  0  0  0  0  0  0  0  0  0
   -4.1990   -1.2831    0.4321 C   0  0  0  0  0  0  0  0  0  0  0  0
   -3.3053   -1.6286   -0.5666 C   0  0  0  0  0  0  0  0  0  0  0  0
   -3.5513   -2.6084   -1.4773 F   0  0  0  0  0  0  0  0  0  0  0  0
   -2.0924   -0.9464   -0.6524 C   0  0  0  0  0  0  0  0  0  0  0  0
   -1.1381   -1.2948   -1.6951 C   0  0  0  0  0  0  0  0  0  0  0  0
    0.1160   -0.5088   -1.6918 C   0  0  0  0  0  0  0  0  0  0  0  0
    1.1685   -0.7986   -2.7378 C   0  0  0  0  0  0  0  0  0  0  0  0
    1.5591   -2.1126   -2.5922 F   0  0  0  0  0  0  0  0  0  0  0  0
    0.4080    0.4502   -0.8356 C   0  0  0  0  0  0  0  0  0  0  0  0
  1  2  1  0
  2  3  1  0
  2  4  1  0
  4  5  1  0
  5  6  1  0
  6  7  1  0
  7  8  1  0
  8  9  1  0
  9 10  1  0
 10 11  1  0
 11 12  2  0
 10 13  1  0
 13 14  1  0
 14 15  2  0
 15 16  1  0
 16 17  1  0
 16 18  2  0
 18 19  1  0
 19 20  1  0
 19 21  2  0
 21 22  1  0
 22 23  1  0
 23 24  1  0
 24 25  1  0
  6 26  1  0
 26 13  1  0
 21 14  1  0
 23 26  2  0
M  END
$$$$
