
     RDKit          3D

 29 33  0  0  0  0  0  0  0  0999 V2000
   -3.2359   -0.3712    1.1402 O   0  0  0  0  0  0  0  0  0  0  0  0
   -2.8329   -1.3051    0.4323 C   0  0  0  0  0  0  0  0  0  0  0  0
   -3.7000   -2.3966    0.1652 N   0  0  0  0  0  0  0  0  0  0  0  0
   -5.0354   -2.5212    0.6533 C   0  0  0  0  0  0  0  0  0  0  0  0
   -6.0519   -2.7032   -0.5220 C   0  0  0  0  0  0  0  0  0  0  0  0
   -6.1192   -1.5741    0.4022 C   0  0  0  0  0  0  0  0  0  0  0  0
   -5.9366   -0.1739    0.0215 C   0  0  0  0  0  0  0  0  0  0  0  0
   -6.2809    0.8012    0.9599 C   0  0  0  0  0  0  0  0  0  0  0  0
   -6.1546    2.1430    0.7217 C   0  0  0  0  0  0  0  0  0  0  0  0
   -5.6679    2.5794   -0.4913 C   0  0  0  0  0  0  0  0  0  0  0  0
   -5.3211    1.6278   -1.4352 C   0  0  0  0  0  0  0  0  0  0  0  0
   -5.4509    0.2723   -1.1888 C   0  0  0  0  0  0  0  0  0  0  0  0
   -1.5223   -1.2796   -0.1028 N   0  0  0  0  0  0  0  0  0  0  0  0
   -0.5938   -0.1923    0.1360 C   0  0  0  0  0  0  0  0  0  0  0  0
    0.5392   -0.3170   -0.8327 C   0  0  0  0  0  0  0  0  0  0  0  0
    1.4716   -1.3150   -0.1796 C   0  0  0  0  0  0  0  0  0  0  0  0
    2.8521   -0.8957   -0.4862 C   0  0  0  0  0  0  0  0  0  0  0  0
    3.5704   -0.0171    0.2315 N   0  0  0  0  0  0  0  0  0  0  0  0
    4.7742    0.1137   -0.3491 C   0  0  0  0  0  0  0  0  0  0  0  0
    5.8353    1.0043    0.1663 C   0  0  0  0  0  0  0  0  0  0  0  0
    5.6408    1.7629    1.2966 C   0  0  0  0  0  0  0  0  0  0  0  0
    6.6193    2.5958    1.7871 C   0  0  0  0  0  0  0  0  0  0  0  0
    7.8344    2.6553    1.1018 C   0  0  0  0  0  0  0  0  0  0  0  0
    8.0788    1.9159   -0.0348 C   0  0  0  0  0  0  0  0  0  0  0  0
    7.0513    1.1019   -0.4696 C   0  0  0  0  0  0  0  0  0  0  0  0
    4.7729   -0.6837   -1.4074 N   0  0  0  0  0  0  0  0  0  0  0  0
    3.6165   -1.2779   -1.4722 O   0  0  0  0  0  0  0  0  0  0  0  0
    1.2305   -1.2133    1.3086 C   0  0  0  0  0  0  0  0  0  0  0  0
    0.0161   -0.3366    1.4897 C   0  0  0  0  0  0  0  0  0  0  0  0
  1  2  2  0
  2  3  1  0
  3  4  1  0
  4  5  1  0
  5  6  1  0
  6  7  1  0
  7  8  2  0
  8  9  1  0
  9 10  2  0
 10 11  1  0
 11 12  2  0
  2 13  1  0
 13 14  1  0
 14 15  1  0
 15 16  1  0
 16 17  1  0
 17 18  2  0
 18 19  1  0
 19 20  1  0
 20 21  2  0
 21 22  1  0
 22 23  2  0
 23 24  1  0
 24 25  2  0
 19 26  2  0
 26 27  1  0
 16 28  1  0
 28 29  1  0
  6  4  1  0
 12  7  1  0
 29 14  1  0
 27 17  1  0
 25 20  1  0
M  END
$$$$
