
     RDKit          3D

 20 21  0  0  0  0  0  0  0  0999 V2000
   -0.3885    3.7735    0.6248 O   0  0  0  0  0  0  0  0  0  0  0  0
   -0.3555    2.5026    0.3799 C   0  0  0  0  0  0  0  0  0  0  0  0
    0.7784    1.8293    0.7635 N   0  0  0  0  0  0  0  0  0  0  0  0
    1.4839    0.7182    0.2454 C   0  0  0  0  0  0  0  0  0  0  0  0
    2.8642    0.8032   -0.0317 C   0  0  0  0  0  0  0  0  0  0  0  0
    3.6212   -0.2003   -0.5286 C   0  0  0  0  0  0  0  0  0  0  0  0
    5.3367    0.0756   -0.8169 Cl  0  0  0  0  0  0  0  0  0  0  0  0
    3.0602   -1.4179   -0.8048 C   0  0  0  0  0  0  0  0  0  0  0  0
    1.7099   -1.5586   -0.5523 C   0  0  0  0  0  0  0  0  0  0  0  0
    1.1948   -2.7884   -0.8494 F   0  0  0  0  0  0  0  0  0  0  0  0
    0.9292   -0.5161   -0.0367 C   0  0  0  0  0  0  0  0  0  0  0  0
   -1.4589    1.9336   -0.2443 N   0  0  0  0  0  0  0  0  0  0  0  0
   -2.6238    1.3037    0.2884 C   0  0  0  0  0  0  0  0  0  0  0  0
   -3.0844    0.2373   -0.6795 C   0  0  0  0  0  0  0  0  0  0  0  0
   -3.3996   -0.9575    0.1493 C   0  0  0  0  0  0  0  0  0  0  0  0
   -2.5869   -1.1726    1.3751 C   0  0  0  0  0  0  0  0  0  0  0  0
   -1.2976   -0.3742    1.3268 C   0  0  0  0  0  0  0  0  0  0  0  0
   -0.4697   -0.8507    0.1777 C   0  0  0  0  0  0  0  0  0  0  0  0
   -1.0422   -1.5977   -0.6580 O   0  0  0  0  0  0  0  0  0  0  0  0
   -4.2714   -1.7429   -0.1288 O   0  0  0  0  0  0  0  0  0  0  0  0
  1  2  2  0
  2  3  1  0
  3  4  1  0
  4  5  2  0
  5  6  1  0
  6  7  1  0
  6  8  2  0
  8  9  1  0
  9 10  1  0
  9 11  2  0
  2 12  1  0
 12 13  1  0
 13 14  1  0
 14 15  1  0
 15 16  1  0
 16 17  1  0
 17 18  1  0
 18 19  2  0
 15 20  2  0
 11  4  1  0
 18 11  1  0
M  END
$$$$
