
     RDKit          3D

 21 22  0  0  0  0  0  0  0  0999 V2000
    0.5041   -0.1439   -1.9287 O   0  0  0  0  0  0  0  0  0  0  0  0
   -0.1585   -0.0300   -0.8665 C   0  0  0  0  0  0  0  0  0  0  0  0
    0.5800    0.2845    0.3232 N   0  0  0  0  0  0  0  0  0  0  0  0
    1.9853    0.4491    0.2537 C   0  0  0  0  0  0  0  0  0  0  0  0
    2.7106    0.7511    1.3835 C   0  0  0  0  0  0  0  0  0  0  0  0
    4.0759    0.9181    1.3541 C   0  0  0  0  0  0  0  0  0  0  0  0
    4.8993    1.3041    2.8689 Cl  0  0  0  0  0  0  0  0  0  0  0  0
    4.7590    0.7856    0.1789 C   0  0  0  0  0  0  0  0  0  0  0  0
    4.0739    0.4846   -0.9732 C   0  0  0  0  0  0  0  0  0  0  0  0
    4.7472    0.3491   -2.1573 F   0  0  0  0  0  0  0  0  0  0  0  0
    2.7066    0.3231   -0.9129 C   0  0  0  0  0  0  0  0  0  0  0  0
   -1.5627   -0.1961   -0.8057 N   0  0  0  0  0  0  0  0  0  0  0  0
   -2.3131   -0.5123   -1.9959 C   0  0  0  0  0  0  0  0  0  0  0  0
   -3.2654    0.6356   -2.2540 C   0  0  0  0  0  0  0  0  0  0  0  0
   -3.7547    1.2736   -0.9724 C   0  0  0  0  0  0  0  0  0  0  0  0
   -3.7316    0.2647    0.1384 C   0  0  0  0  0  0  0  0  0  0  0  0
   -2.2783   -0.0567    0.4305 C   0  0  0  0  0  0  0  0  0  0  0  0
   -2.2636   -1.3152    1.2710 C   0  0  0  0  0  0  0  0  0  0  0  0
   -3.0491   -0.9961    2.5133 C   0  0  0  0  0  0  0  0  0  0  0  0
   -3.2351   -1.7780    3.3990 O   0  0  0  0  0  0  0  0  0  0  0  0
   -5.4297    1.8050   -1.2478 Cl  0  0  0  0  0  0  0  0  0  0  0  0
  1  2  2  0
  2  3  1  0
  3  4  1  0
  4  5  2  0
  5  6  1  0
  6  7  1  0
  6  8  2  0
  8  9  1  0
  9 10  1  0
  9 11  2  0
  2 12  1  0
 12 13  1  0
 13 14  1  0
 14 15  1  0
 15 16  1  0
 16 17  1  0
 17 18  1  0
 18 19  1  0
 19 20  2  0
 15 21  1  0
 11  4  1  0
 17 12  1  0
M  END
$$$$
