
     RDKit          3D

 20 22  0  0  0  0  0  0  0  0999 V2000
   -0.1529    3.7299   -1.3522 O   0  0  0  0  0  0  0  0  0  0  0  0
   -0.1775    2.5367   -0.9502 C   0  0  0  0  0  0  0  0  0  0  0  0
    1.1411    1.9900   -0.7733 N   0  0  0  0  0  0  0  0  0  0  0  0
    1.5236    0.7139   -0.2383 C   0  0  0  0  0  0  0  0  0  0  0  0
    2.8401    0.8471    0.1719 C   0  0  0  0  0  0  0  0  0  0  0  0
    3.5552   -0.1848    0.7440 C   0  0  0  0  0  0  0  0  0  0  0  0
    5.2309    0.0345    1.2504 Cl  0  0  0  0  0  0  0  0  0  0  0  0
    2.9101   -1.3930    0.9044 C   0  0  0  0  0  0  0  0  0  0  0  0
    1.5940   -1.5450    0.5003 C   0  0  0  0  0  0  0  0  0  0  0  0
    0.9295   -2.7230    0.6445 F   0  0  0  0  0  0  0  0  0  0  0  0
    0.8874   -0.5078   -0.0705 C   0  0  0  0  0  0  0  0  0  0  0  0
   -1.5246    2.0552   -0.7805 N   0  0  0  0  0  0  0  0  0  0  0  0
   -1.9824    0.9320    0.0257 C   0  0  0  0  0  0  0  0  0  0  0  0
   -3.4258    1.0608    0.4112 C   0  0  0  0  0  0  0  0  0  0  0  0
   -3.5584   -0.0342    1.4775 C   0  0  0  0  0  0  0  0  0  0  0  0
   -3.0823   -1.3908   -0.1458 S   0  0  0  0  0  0  0  0  0  0  0  0
   -1.7993   -0.3852   -0.6482 C   0  0  0  0  0  0  0  0  0  0  0  0
   -0.4477   -0.9868   -0.3778 C   0  0  0  0  0  0  0  0  0  0  0  0
   -0.4473   -2.2563   -0.4252 O   0  0  0  0  0  0  0  0  0  0  0  0
   -4.0136   -2.4932   -0.3678 Cl  0  0  0  0  0  0  0  0  0  0  0  0
  1  2  2  0
  2  3  1  0
  3  4  1  0
  4  5  2  0
  5  6  1  0
  6  7  1  0
  6  8  2  0
  8  9  1  0
  9 10  1  0
  9 11  2  0
  2 12  1  0
 12 13  1  0
 13 14  1  0
 14 15  1  0
 15 16  1  0
 16 17  1  0
 17 18  1  0
 18 19  2  0
 16 20  1  0
 11  4  1  0
 18 11  1  0
 17 13  1  0
M  END
$$$$
