
     RDKit          3D

 15 16  0  0  0  0  0  0  0  0999 V2000
    1.0144    0.7759    1.6294 C   0  0  0  0  0  0  0  0  0  0  0  0
   -0.3176    0.4151    2.1477 O   0  0  0  0  0  0  0  0  0  0  0  0
   -1.3589    0.3768    1.2117 C   0  0  0  0  0  0  0  0  0  0  0  0
   -2.6936    0.2121    1.3923 C   0  0  0  0  0  0  0  0  0  0  0  0
   -3.6008    0.1968    0.3442 C   0  0  0  0  0  0  0  0  0  0  0  0
   -3.1172    0.3577   -0.9485 C   0  0  0  0  0  0  0  0  0  0  0  0
   -1.7835    0.5212   -1.1167 C   0  0  0  0  0  0  0  0  0  0  0  0
   -0.9442    0.5289   -0.0643 C   0  0  0  0  0  0  0  0  0  0  0  0
   -1.0724    0.6870   -2.4292 C   0  0  0  0  0  0  0  0  0  0  0  0
    0.4379    0.4528   -2.1652 C   0  0  0  0  0  0  0  0  0  0  0  0
    0.9278    1.0498   -0.8864 C   0  0  0  0  0  0  0  0  0  0  0  0
    1.1124    0.1329    0.2716 C   0  0  0  0  0  0  0  0  0  0  0  0
    2.4511   -1.0303    0.1050 S   0  0  0  0  0  0  0  0  0  0  0  0
    3.9837   -0.1162    0.2248 C   0  0  0  0  0  0  0  0  0  0  0  0
    4.9610    0.4558    0.2838 N   0  0  0  0  0  0  0  0  0  0  0  0
  1  2  1  0
  2  3  1  0
  3  4  2  0
  4  5  1  0
  5  6  2  0
  6  7  1  0
  7  8  2  0
  7  9  1  0
  9 10  1  0
 10 11  1  0
 11 12  1  0
 12 13  1  0
 13 14  1  0
 14 15  3  0
 12  1  1  0
  8  3  1  0
M  END
$$$$
