
     RDKit          3D

 11 11  0  0  0  0  0  0  0  0999 V2000
    2.8942    1.9001    0.6203 O   0  0  0  0  0  0  0  0  0  0  0  0
    2.8021    0.7126    0.2564 C   0  0  0  0  0  0  0  0  0  0  0  0
    1.5287    0.0591    0.4306 N   0  0  0  0  0  0  0  0  0  0  0  0
    0.4743    0.8234    1.0060 C   0  0  0  0  0  0  0  0  0  0  0  0
   -0.8259    0.6711    0.7794 C   0  0  0  0  0  0  0  0  0  0  0  0
   -1.5086   -0.2870   -0.0904 C   0  0  0  0  0  0  0  0  0  0  0  0
   -2.8339   -0.3018   -0.0956 C   0  0  0  0  0  0  0  0  0  0  0  0
   -3.5090    0.5615    0.6961 F   0  0  0  0  0  0  0  0  0  0  0  0
    1.4763   -1.2967   -0.0011 C   0  0  0  0  0  0  0  0  0  0  0  0
    0.3631   -1.6223   -0.8944 C   0  0  0  0  0  0  0  0  0  0  0  0
   -0.8613   -1.2200   -0.9455 N   0  0  0  0  0  0  0  0  0  0  0  0
  1  2  2  0
  2  3  1  0
  3  4  1  0
  4  5  2  0
  5  6  1  0
  6  7  2  3
  7  8  1  0
  3  9  1  0
  9 10  1  0
 10 11  2  0
 11  6  1  0
M  END
$$$$
