
     RDKit          3D

 20 22  0  0  0  0  0  0  0  0999 V2000
   -0.6857   -3.8765    0.1368 O   0  0  0  0  0  0  0  0  0  0  0  0
   -0.5686   -2.6403    0.2383 C   0  0  0  0  0  0  0  0  0  0  0  0
    0.8125   -2.2326    0.2218 N   0  0  0  0  0  0  0  0  0  0  0  0
    1.4669   -0.9780    0.0103 C   0  0  0  0  0  0  0  0  0  0  0  0
    2.7939   -1.2684   -0.1955 C   0  0  0  0  0  0  0  0  0  0  0  0
    3.6782   -0.2545   -0.4276 C   0  0  0  0  0  0  0  0  0  0  0  0
    5.3836   -0.6134   -0.6932 Cl  0  0  0  0  0  0  0  0  0  0  0  0
    3.2286    1.0454   -0.4524 C   0  0  0  0  0  0  0  0  0  0  0  0
    1.8922    1.3193   -0.2437 C   0  0  0  0  0  0  0  0  0  0  0  0
    1.3039    2.9699   -0.2721 Cl  0  0  0  0  0  0  0  0  0  0  0  0
    0.9657    0.3193   -0.0053 C   0  0  0  0  0  0  0  0  0  0  0  0
   -1.7630   -1.8895    0.3470 N   0  0  0  0  0  0  0  0  0  0  0  0
   -2.2413   -0.6115   -0.0718 C   0  0  0  0  0  0  0  0  0  0  0  0
   -3.7238   -0.5052    0.2951 C   0  0  0  0  0  0  0  0  0  0  0  0
   -4.1771    0.6468   -0.5401 C   0  0  0  0  0  0  0  0  0  0  0  0
   -2.8357    1.8534    0.0218 S   0  0  0  0  0  0  0  0  0  0  0  0
   -1.6507    0.5333    0.6962 C   0  0  0  0  0  0  0  0  0  0  0  0
   -0.3294    0.9429    0.1688 C   0  0  0  0  0  0  0  0  0  0  0  0
   -0.2700    2.1470   -0.2514 O   0  0  0  0  0  0  0  0  0  0  0  0
   -3.2803    3.0928    1.0171 Cl  0  0  0  0  0  0  0  0  0  0  0  0
  1  2  2  0
  2  3  1  0
  3  4  1  0
  4  5  2  0
  5  6  1  0
  6  7  1  0
  6  8  2  0
  8  9  1  0
  9 10  1  0
  9 11  2  0
  2 12  1  0
 12 13  1  0
 13 14  1  0
 14 15  1  0
 15 16  1  0
 16 17  1  0
 17 18  1  0
 18 19  2  0
 16 20  1  0
 11  4  1  0
 18 11  1  0
 17 13  1  0
M  END
$$$$
