
     RDKit          3D

 11 11  0  0  0  0  0  0  0  0999 V2000
   -3.6155    0.1395    1.0967 O   0  0  0  0  0  0  0  0  0  0  0  0
   -3.0846   -0.2926    0.0489 C   0  0  0  0  0  0  0  0  0  0  0  0
   -1.6664   -0.2427   -0.1559 N   0  0  0  0  0  0  0  0  0  0  0  0
   -0.8082    0.3064    0.8380 C   0  0  0  0  0  0  0  0  0  0  0  0
    0.5042    0.3704    0.6870 C   0  0  0  0  0  0  0  0  0  0  0  0
    1.1014   -0.1392   -0.5423 C   0  0  0  0  0  0  0  0  0  0  0  0
    2.4165   -0.0988   -0.7450 C   0  0  0  0  0  0  0  0  0  0  0  0
    3.3517    0.4576    0.2479 C   0  0  0  0  0  0  0  0  0  0  0  0
    2.6625    0.9109    1.3761 F   0  0  0  0  0  0  0  0  0  0  0  0
   -1.0719   -0.7348   -1.3471 C   0  0  0  0  0  0  0  0  0  0  0  0
    0.2103   -0.6768   -1.5043 N   0  0  0  0  0  0  0  0  0  0  0  0
  1  2  2  0
  2  3  1  0
  3  4  1  0
  4  5  2  0
  5  6  1  0
  6  7  2  3
  7  8  1  0
  8  9  1  0
  3 10  1  0
 10 11  2  0
 11  6  1  0
M  END
$$$$
