
     RDKit          3D

 30 34  0  0  0  0  0  0  0  0999 V2000
   -3.5375   -0.6688    0.4294 O   0  0  0  0  0  0  0  0  0  0  0  0
   -2.6139   -0.4412   -0.3757 C   0  0  0  0  0  0  0  0  0  0  0  0
   -3.0169   -0.1319   -1.7037 N   0  0  0  0  0  0  0  0  0  0  0  0
   -4.2529   -0.0266   -2.2906 C   0  0  0  0  0  0  0  0  0  0  0  0
   -5.3725   -0.9539   -2.3548 C   0  0  0  0  0  0  0  0  0  0  0  0
   -5.5133    0.5422   -1.9161 C   0  0  0  0  0  0  0  0  0  0  0  0
   -6.1454    0.6834   -0.6222 C   0  0  0  0  0  0  0  0  0  0  0  0
   -5.9853    1.7516    0.2378 C   0  0  0  0  0  0  0  0  0  0  0  0
   -6.6320    1.8319    1.4531 C   0  0  0  0  0  0  0  0  0  0  0  0
   -7.4924    0.8124    1.8680 C   0  0  0  0  0  0  0  0  0  0  0  0
   -7.6579   -0.2534    1.0205 C   0  0  0  0  0  0  0  0  0  0  0  0
   -7.0114   -0.3206   -0.1796 C   0  0  0  0  0  0  0  0  0  0  0  0
   -1.2387   -0.4874   -0.0123 N   0  0  0  0  0  0  0  0  0  0  0  0
   -0.8640   -0.8201    1.3334 C   0  0  0  0  0  0  0  0  0  0  0  0
    0.5944   -0.6554    1.6253 C   0  0  0  0  0  0  0  0  0  0  0  0
    1.4543   -1.1969    0.5363 C   0  0  0  0  0  0  0  0  0  0  0  0
    2.9050   -0.9929    0.8668 C   0  0  0  0  0  0  0  0  0  0  0  0
    3.8079   -0.2995    0.1534 N   0  0  0  0  0  0  0  0  0  0  0  0
    5.0047   -0.3438    0.7695 C   0  0  0  0  0  0  0  0  0  0  0  0
    6.2594    0.2524    0.3759 C   0  0  0  0  0  0  0  0  0  0  0  0
    6.3916    1.0151   -0.7782 C   0  0  0  0  0  0  0  0  0  0  0  0
    7.6146    1.5558   -1.0815 C   0  0  0  0  0  0  0  0  0  0  0  0
    8.7062    1.3601   -0.2727 C   0  0  0  0  0  0  0  0  0  0  0  0
    8.5531    0.5987    0.8686 C   0  0  0  0  0  0  0  0  0  0  0  0
    7.3441    0.0846    1.1370 N   0  0  0  0  0  0  0  0  0  0  0  0
    4.8009   -1.0792    1.8680 N   0  0  0  0  0  0  0  0  0  0  0  0
    3.5470   -1.4522    1.9027 O   0  0  0  0  0  0  0  0  0  0  0  0
    1.1864   -0.4987   -0.7893 C   0  0  0  0  0  0  0  0  0  0  0  0
   -0.2408   -0.2016   -0.9693 C   0  0  0  0  0  0  0  0  0  0  0  0
   -0.5949    0.3362   -2.0347 O   0  0  0  0  0  0  0  0  0  0  0  0
  1  2  2  0
  2  3  1  0
  3  4  1  0
  4  5  1  0
  5  6  1  0
  6  7  1  0
  7  8  2  0
  8  9  1  0
  9 10  2  0
 10 11  1  0
 11 12  2  0
  2 13  1  0
 13 14  1  0
 14 15  1  0
 15 16  1  0
 16 17  1  0
 17 18  2  0
 18 19  1  0
 19 20  1  0
 20 21  2  0
 21 22  1  0
 22 23  2  0
 23 24  1  0
 24 25  2  0
 19 26  2  0
 26 27  1  0
 16 28  1  0
 28 29  1  0
 29 30  2  0
  6  4  1  0
 12  7  1  0
 29 13  1  0
 27 17  1  0
 25 20  1  0
M  END
$$$$
