
     RDKit          3D

 30 34  0  0  0  0  0  0  0  0999 V2000
   -1.1813    0.3849   -0.9145 O   0  0  0  0  0  0  0  0  0  0  0  0
   -1.4360   -0.0948    0.2058 C   0  0  0  0  0  0  0  0  0  0  0  0
   -2.7313    0.0388    0.7674 N   0  0  0  0  0  0  0  0  0  0  0  0
   -3.7767    0.7373    0.0453 C   0  0  0  0  0  0  0  0  0  0  0  0
   -4.1803    2.0843    0.5119 C   0  0  0  0  0  0  0  0  0  0  0  0
   -5.1065    0.9068    0.7565 C   0  0  0  0  0  0  0  0  0  0  0  0
   -6.3133    0.8197   -0.1115 C   0  0  0  0  0  0  0  0  0  0  0  0
   -6.8842    1.9426   -0.6716 C   0  0  0  0  0  0  0  0  0  0  0  0
   -7.9976    1.8088   -1.4667 C   0  0  0  0  0  0  0  0  0  0  0  0
   -8.5900    0.5941   -1.7436 C   0  0  0  0  0  0  0  0  0  0  0  0
   -8.0124   -0.5210   -1.1796 C   0  0  0  0  0  0  0  0  0  0  0  0
   -6.9011   -0.4009   -0.3843 C   0  0  0  0  0  0  0  0  0  0  0  0
   -0.3951   -0.7781    0.9038 N   0  0  0  0  0  0  0  0  0  0  0  0
    0.9252   -0.8900    0.2850 C   0  0  0  0  0  0  0  0  0  0  0  0
    1.1155   -2.1992   -0.3197 C   0  0  0  0  0  0  0  0  0  0  0  0
    2.1447   -2.4763   -1.2922 C   0  0  0  0  0  0  0  0  0  0  0  0
    3.2827   -1.6547   -1.5083 C   0  0  0  0  0  0  0  0  0  0  0  0
    4.0312   -0.7045   -1.0890 N   0  0  0  0  0  0  0  0  0  0  0  0
    3.9610    0.0947    0.0876 C   0  0  0  0  0  0  0  0  0  0  0  0
    5.1153    0.9713    0.1586 C   0  0  0  0  0  0  0  0  0  0  0  0
    5.0686    2.0350    1.0199 C   0  0  0  0  0  0  0  0  0  0  0  0
    6.1429    2.9064    1.1285 C   0  0  0  0  0  0  0  0  0  0  0  0
    7.2605    2.6904    0.3594 C   0  0  0  0  0  0  0  0  0  0  0  0
    7.2794    1.6159   -0.4962 C   0  0  0  0  0  0  0  0  0  0  0  0
    6.2082    0.7775   -0.5806 N   0  0  0  0  0  0  0  0  0  0  0  0
    3.1090    0.1922    1.0579 N   0  0  0  0  0  0  0  0  0  0  0  0
    1.9121   -0.5065    1.2621 O   0  0  0  0  0  0  0  0  0  0  0  0
    2.3833   -3.8235   -0.6042 C   0  0  0  0  0  0  0  0  0  0  0  0
    1.4112   -3.4033    0.5062 C   0  0  0  0  0  0  0  0  0  0  0  0
    2.1546   -3.1479    2.1139 S   0  0  0  0  0  0  0  0  0  0  0  0
  1  2  2  0
  2  3  1  0
  3  4  1  0
  4  5  1  0
  5  6  1  0
  6  7  1  0
  7  8  2  0
  8  9  1  0
  9 10  2  0
 10 11  1  0
 11 12  2  0
  2 13  1  0
 13 14  1  0
 14 15  1  0
 15 16  1  0
 16 17  1  0
 17 18  2  3
 18 19  1  0
 19 20  1  0
 20 21  2  0
 21 22  1  0
 22 23  2  0
 23 24  1  0
 24 25  2  0
 19 26  2  3
 26 27  1  0
 16 28  1  0
 28 29  1  0
 29 30  1  0
  6  4  1  0
 12  7  1  0
 27 14  1  0
 29 15  1  0
 25 20  1  0
M  END
$$$$
