
     RDKit          3D

 29 32  0  0  0  0  0  0  0  0999 V2000
   -3.0651   -0.8025    1.5347 O   0  0  0  0  0  0  0  0  0  0  0  0
   -2.3720   -1.6886    0.9692 C   0  0  0  0  0  0  0  0  0  0  0  0
   -2.8873   -2.1951   -0.2808 N   0  0  0  0  0  0  0  0  0  0  0  0
   -4.1394   -1.6398   -0.7687 C   0  0  0  0  0  0  0  0  0  0  0  0
   -4.8555   -2.5611   -1.7606 C   0  0  0  0  0  0  0  0  0  0  0  0
   -4.3145   -1.2262   -2.1914 C   0  0  0  0  0  0  0  0  0  0  0  0
   -5.1664   -0.0266   -2.3542 C   0  0  0  0  0  0  0  0  0  0  0  0
   -4.5618    1.2062   -2.3544 C   0  0  0  0  0  0  0  0  0  0  0  0
   -5.2934    2.3773   -2.4902 C   0  0  0  0  0  0  0  0  0  0  0  0
   -6.6443    2.3130   -2.6284 C   0  0  0  0  0  0  0  0  0  0  0  0
   -7.2675    1.1262   -2.6336 C   0  0  0  0  0  0  0  0  0  0  0  0
   -6.5360   -0.0724   -2.4953 C   0  0  0  0  0  0  0  0  0  0  0  0
   -1.1790   -2.1437    1.5436 N   0  0  0  0  0  0  0  0  0  0  0  0
   -0.7537   -1.6484    2.8491 C   0  0  0  0  0  0  0  0  0  0  0  0
    0.6594   -1.0700    2.6824 C   0  0  0  0  0  0  0  0  0  0  0  0
    0.9578   -0.9612    1.1787 C   0  0  0  0  0  0  0  0  0  0  0  0
    2.1859   -0.2187    0.9851 C   0  0  0  0  0  0  0  0  0  0  0  0
    2.2435    1.0294    0.4336 N   0  0  0  0  0  0  0  0  0  0  0  0
    3.5556    1.3747    0.4285 C   0  0  0  0  0  0  0  0  0  0  0  0
    4.0683    2.6468   -0.0665 C   0  0  0  0  0  0  0  0  0  0  0  0
    5.2957    3.0377   -0.0724 C   0  0  0  0  0  0  0  0  0  0  0  0
    6.4219    2.3566    0.3817 C   0  0  0  0  0  0  0  0  0  0  0  0
    7.6352    2.3981    0.5419 C   0  0  0  0  0  0  0  0  0  0  0  0
    8.4994    1.3776    1.1075 C   0  0  0  0  0  0  0  0  0  0  0  0
    9.1655    0.5817    1.5267 N   0  0  0  0  0  0  0  0  0  0  0  0
    4.2465    0.3698    0.9548 N   0  0  0  0  0  0  0  0  0  0  0  0
    3.3949   -0.5533    1.2710 O   0  0  0  0  0  0  0  0  0  0  0  0
    1.0082   -2.3122    0.5264 C   0  0  0  0  0  0  0  0  0  0  0  0
   -0.3020   -3.0752    0.8496 C   0  0  0  0  0  0  0  0  0  0  0  0
  1  2  2  0
  2  3  1  0
  3  4  1  0
  4  5  1  0
  5  6  1  0
  6  7  1  0
  7  8  2  0
  8  9  1  0
  9 10  2  0
 10 11  1  0
 11 12  2  0
  2 13  1  0
 13 14  1  0
 14 15  1  0
 15 16  1  0
 16 17  1  0
 17 18  2  0
 18 19  1  0
 19 20  1  0
 20 21  2  3
 21 22  1  0
 22 23  2  3
 23 24  1  0
 24 25  3  0
 19 26  2  0
 26 27  1  0
 16 28  1  0
 28 29  1  0
  6  4  1  0
 12  7  1  0
 29 13  1  0
 27 17  1  0
M  END
$$$$
