
     RDKit          3D

 20 22  0  0  0  0  0  0  0  0999 V2000
    0.1334    3.9174    0.3594 O   0  0  0  0  0  0  0  0  0  0  0  0
   -0.0042    2.6822    0.1610 C   0  0  0  0  0  0  0  0  0  0  0  0
    1.2135    1.9419    0.0749 N   0  0  0  0  0  0  0  0  0  0  0  0
    1.6515    0.5990    0.0061 C   0  0  0  0  0  0  0  0  0  0  0  0
    3.0406    0.6173    0.0657 C   0  0  0  0  0  0  0  0  0  0  0  0
    3.7813   -0.5457    0.0214 C   0  0  0  0  0  0  0  0  0  0  0  0
    5.5275   -0.5722    0.0931 Cl  0  0  0  0  0  0  0  0  0  0  0  0
    3.1182   -1.7492   -0.0847 C   0  0  0  0  0  0  0  0  0  0  0  0
    1.7221   -1.7771   -0.1452 C   0  0  0  0  0  0  0  0  0  0  0  0
    0.8891   -3.2998   -0.2791 Cl  0  0  0  0  0  0  0  0  0  0  0  0
    0.9878   -0.6112   -0.1004 C   0  0  0  0  0  0  0  0  0  0  0  0
   -1.3710    2.2442    0.0576 N   0  0  0  0  0  0  0  0  0  0  0  0
   -2.0551    0.9987   -0.0262 C   0  0  0  0  0  0  0  0  0  0  0  0
   -3.5382    1.1138   -0.0045 C   0  0  0  0  0  0  0  0  0  0  0  0
   -3.9290   -0.2620    0.5400 C   0  0  0  0  0  0  0  0  0  0  0  0
   -2.9140   -1.1384   -0.1729 C   0  0  0  0  0  0  0  0  0  0  0  0
   -1.7015   -0.2770   -0.1216 C   0  0  0  0  0  0  0  0  0  0  0  0
   -0.4311   -0.9935   -0.1849 C   0  0  0  0  0  0  0  0  0  0  0  0
   -0.5325   -2.2367   -0.3506 O   0  0  0  0  0  0  0  0  0  0  0  0
   -5.5883   -0.6517    0.0911 Cl  0  0  0  0  0  0  0  0  0  0  0  0
  1  2  2  0
  2  3  1  0
  3  4  1  0
  4  5  2  0
  5  6  1  0
  6  7  1  0
  6  8  2  0
  8  9  1  0
  9 10  1  0
  9 11  2  0
  2 12  1  0
 12 13  1  0
 13 14  1  0
 14 15  1  0
 15 16  1  0
 16 17  1  0
 17 18  1  0
 18 19  2  0
 15 20  1  0
 11  4  1  0
 18 11  1  0
 13 17  2  0
M  END
$$$$
