
     RDKit          3D

 27 30  0  0  0  0  0  0  0  0999 V2000
    6.9462    1.1378   -0.6795 C   0  0  0  0  0  0  0  0  0  0  0  0
    6.9734   -0.2810   -0.1621 C   0  0  0  0  0  0  0  0  0  0  0  0
    6.2224   -0.0496    1.1440 C   0  0  2  0  0  0  0  0  0  0  0  0
    5.6828   -1.2619    1.7820 C   0  0  0  0  0  0  0  0  0  0  0  0
    5.2495    1.0121    0.7443 C   0  0  2  0  0  0  0  0  0  0  0  0
    4.0136    0.5630    0.1980 N   0  0  0  0  0  0  0  0  0  0  0  0
    2.9763   -0.0346    0.9264 C   0  0  0  0  0  0  0  0  0  0  0  0
    3.2294   -0.1559    2.1887 O   0  0  0  0  0  0  0  0  0  0  0  0
    1.7476   -0.4855    0.4046 N   0  0  0  0  0  0  0  0  0  0  0  0
    0.7109   -1.1220    1.1945 C   0  0  0  0  0  0  0  0  0  0  0  0
   -0.5027   -0.2115    1.1401 C   0  0  0  0  0  0  0  0  0  0  0  0
   -0.9651   -0.0773   -0.3172 C   0  0  0  0  0  0  0  0  0  0  0  0
    0.0221   -0.5706   -1.3063 C   0  0  0  0  0  0  0  0  0  0  0  0
    1.4634   -0.2973   -1.0014 C   0  0  0  0  0  0  0  0  0  0  0  0
   -2.2013   -0.9672   -0.4275 C   0  0  0  0  0  0  0  0  0  0  0  0
   -3.1612   -0.2974   -1.2918 N   0  0  0  0  0  0  0  0  0  0  0  0
   -2.9406   -0.0820   -2.7241 C   0  0  0  0  0  0  0  0  0  0  0  0
   -1.5715    0.5323   -2.8675 C   0  0  0  0  0  0  0  0  0  0  0  0
   -1.5201    1.7538   -1.9588 C   0  0  0  0  0  0  0  0  0  0  0  0
   -1.3509    1.3622   -0.5052 C   0  0  0  0  0  0  0  0  0  0  0  0
   -4.3027    0.1366   -0.7444 C   0  0  0  0  0  0  0  0  0  0  0  0
   -5.3309    0.7941   -0.6893 C   0  0  0  0  0  0  0  0  0  0  0  0
   -6.2356    0.6812    0.4828 C   0  0  0  0  0  0  0  0  0  0  0  0
   -7.3842    1.2634    0.7973 C   0  0  0  0  0  0  0  0  0  0  0  0
   -7.5507    0.5626    2.1085 C   0  0  0  0  0  0  0  0  0  0  0  0
   -6.2236   -0.0977    1.7321 C   0  0  0  0  0  0  0  0  0  0  0  0
    6.0034    1.8088   -0.1683 N   0  0  0  0  0  0  0  0  0  0  0  0
  1  2  1  0
  2  3  1  0
  3  4  1  6
  3  5  1  0
  5  6  1  6
  6  7  1  0
  7  8  2  0
  7  9  1  0
  9 10  1  0
 10 11  1  0
 11 12  1  0
 12 13  1  0
 13 14  1  0
 12 15  1  0
 15 16  1  0
 16 17  1  0
 17 18  1  0
 18 19  1  0
 19 20  1  0
 16 21  1  0
 21 22  2  3
 22 23  1  0
 23 24  2  0
 24 25  1  0
 25 26  1  0
  5 27  1  0
  1 27  2  0
 14  9  1  0
 20 12  1  0
 26 23  1  0
M  END
$$$$
