
     RDKit          3D

 25 28  0  0  0  0  0  0  0  0999 V2000
    0.3322   -0.8082    0.3667 O   0  0  0  0  0  0  0  0  0  0  0  0
   -0.4145    0.1004   -0.0160 C   0  0  0  0  0  0  0  0  0  0  0  0
   -1.8315    0.0118    0.2677 N   0  0  0  0  0  0  0  0  0  0  0  0
   -2.2866   -1.1469    0.9881 C   0  0  0  0  0  0  0  0  0  0  0  0
   -3.0890   -0.9511    2.2342 C   0  0  0  0  0  0  0  0  0  0  0  0
   -3.6753   -1.5957    0.9842 C   0  0  0  0  0  0  0  0  0  0  0  0
   -4.7717   -0.8548    0.3090 C   0  0  0  0  0  0  0  0  0  0  0  0
   -4.5680   -0.2379   -0.9080 C   0  0  0  0  0  0  0  0  0  0  0  0
   -5.5939    0.4536   -1.5367 C   0  0  0  0  0  0  0  0  0  0  0  0
   -6.8412    0.5373   -0.9539 C   0  0  0  0  0  0  0  0  0  0  0  0
   -7.0701   -0.0684    0.2579 C   0  0  0  0  0  0  0  0  0  0  0  0
   -6.0256   -0.7572    0.8710 C   0  0  0  0  0  0  0  0  0  0  0  0
    0.0744    1.2025   -0.7112 N   0  0  0  0  0  0  0  0  0  0  0  0
    1.4152    1.4686   -1.0676 C   0  0  0  0  0  0  0  0  0  0  0  0
    2.3346    1.6209    0.0691 C   0  0  0  0  0  0  0  0  0  0  0  0
    3.6674    2.2347   -0.2924 C   0  0  0  0  0  0  0  0  0  0  0  0
    4.1446    1.8267   -1.6326 C   0  0  0  0  0  0  0  0  0  0  0  0
    4.9842    0.8940   -1.7605 N   0  0  0  0  0  0  0  0  0  0  0  0
    5.5300    0.1739   -0.6631 C   0  0  0  0  0  0  0  0  0  0  0  0
    5.2502   -1.2702   -0.6883 C   0  0  0  0  0  0  0  0  0  0  0  0
    4.5638   -1.8867    0.2768 C   0  0  0  0  0  0  0  0  0  0  0  0
    4.0868   -1.0992    1.3750 C   0  0  0  0  0  0  0  0  0  0  0  0
    3.6844   -0.6520    2.5920 C   0  0  0  0  0  0  0  0  0  0  0  0
    3.6691    0.2793    1.4141 C   0  0  0  0  0  0  0  0  0  0  0  0
    2.4306    0.5246    0.8631 O   0  0  0  0  0  0  0  0  0  0  0  0
  1  2  2  0
  2  3  1  0
  3  4  1  0
  4  5  1  0
  5  6  1  0
  6  7  1  0
  7  8  2  0
  8  9  1  0
  9 10  2  0
 10 11  1  0
 11 12  2  0
  2 13  1  0
 13 14  1  0
 14 15  1  0
 15 16  1  0
 16 17  1  0
 17 18  2  3
 18 19  1  0
 19 20  1  0
 20 21  2  3
 21 22  1  0
 22 23  2  0
 23 24  1  0
 24 25  1  0
  6  4  1  0
 12  7  1  0
 25 15  1  0
 24 22  1  0
M  END
$$$$
