
     RDKit          3D

 29 33  0  0  0  0  0  0  0  0999 V2000
    1.7509   -1.6703    1.1008 O   0  0  0  0  0  1  0  0  0  0  0  0
    1.1226   -0.4961    0.8160 N   0  0  0  0  0  3  0  0  0  0  0  0
    1.7397    0.1274   -0.2551 N   0  0  0  0  0  0  0  0  0  0  0  0
    3.0865   -0.3615   -0.4776 C   0  0  0  0  0  0  0  0  0  0  0  0
    3.8532    0.2750   -1.6504 C   0  0  0  0  0  0  0  0  0  0  0  0
    4.1829    0.5818   -0.2357 C   0  0  0  0  0  0  0  0  0  0  0  0
    5.4904    0.0808    0.2862 C   0  0  0  0  0  0  0  0  0  0  0  0
    5.7453   -0.0767    1.6308 C   0  0  0  0  0  0  0  0  0  0  0  0
    6.9723   -0.5434    2.0477 C   0  0  0  0  0  0  0  0  0  0  0  0
    7.9715   -0.8644    1.1623 C   0  0  0  0  0  0  0  0  0  0  0  0
    7.7124   -0.7053   -0.1847 C   0  0  0  0  0  0  0  0  0  0  0  0
    6.4915   -0.2397   -0.6253 C   0  0  0  0  0  0  0  0  0  0  0  0
   -0.2257   -0.6976    0.4818 N   0  0  0  0  0  0  0  0  0  0  0  0
   -0.5886    0.1652   -0.5864 C   0  0  0  0  0  0  0  0  0  0  0  0
   -0.4684    1.5934   -0.3858 C   0  0  0  0  0  0  0  0  0  0  0  0
   -1.6415    2.4393   -0.1447 C   0  0  0  0  0  0  0  0  0  0  0  0
   -2.6886    1.9548    0.7429 C   0  0  0  0  0  0  0  0  0  0  0  0
   -3.5330    0.9873    0.7485 N   0  0  0  0  0  0  0  0  0  0  0  0
   -3.7543   -0.0589   -0.2251 C   0  0  0  0  0  0  0  0  0  0  0  0
   -5.0917   -0.6222   -0.2143 C   0  0  0  0  0  0  0  0  0  0  0  0
   -6.0906   -0.0679    0.5339 C   0  0  0  0  0  0  0  0  0  0  0  0
   -7.3488   -0.6193    0.5283 C   0  0  0  0  0  0  0  0  0  0  0  0
   -7.5891   -1.7328   -0.2376 C   0  0  0  0  0  0  0  0  0  0  0  0
   -6.5509   -2.2652   -0.9821 C   0  0  0  0  0  0  0  0  0  0  0  0
   -5.3408   -1.7026   -0.9521 N   0  0  0  0  0  0  0  0  0  0  0  0
   -2.9699   -0.6022   -1.1220 N   0  0  0  0  0  0  0  0  0  0  0  0
   -1.6329   -0.3039   -1.3984 O   0  0  0  0  0  0  0  0  0  0  0  0
   -0.7064    3.3539    0.6709 C   0  0  0  0  0  0  0  0  0  0  0  0
    0.1018    2.0713    0.9330 C   0  0  0  0  0  0  0  0  0  0  0  0
  1  2  1  0
  2  3  1  0
  3  4  1  0
  4  5  1  0
  5  6  1  0
  6  7  1  0
  7  8  2  0
  8  9  1  0
  9 10  2  0
 10 11  1  0
 11 12  2  0
  2 13  1  0
 13 14  1  0
 14 15  1  0
 15 16  1  0
 16 17  1  0
 17 18  2  3
 18 19  1  0
 19 20  1  0
 20 21  2  0
 21 22  1  0
 22 23  2  0
 23 24  1  0
 24 25  2  0
 19 26  2  3
 26 27  1  0
 16 28  1  0
 28 29  1  0
  6  4  1  0
 12  7  1  0
 27 14  1  0
 29 15  1  0
 25 20  1  0
M  CHG  2   1  -1   2   1
M  RAD  1   2   2
M  END
$$$$
