
     RDKit          3D

 20 21  0  0  0  0  0  0  0  0999 V2000
   -0.0002   -0.1649    0.4285 O   0  0  0  0  0  0  0  0  0  0  0  0
   -0.2598    0.0053   -0.7764 C   0  0  0  0  0  0  0  0  0  0  0  0
    0.8327    0.5621   -1.5449 N   0  0  0  0  0  0  0  0  0  0  0  0
    2.0748    0.8714   -0.9336 C   0  0  0  0  0  0  0  0  0  0  0  0
    3.0958    1.4001   -1.6909 C   0  0  0  0  0  0  0  0  0  0  0  0
    4.3289    1.7202   -1.1442 C   0  0  0  0  0  0  0  0  0  0  0  0
    5.6165    2.3894   -2.1106 Cl  0  0  0  0  0  0  0  0  0  0  0  0
    4.5195    1.4949    0.2021 C   0  0  0  0  0  0  0  0  0  0  0  0
    3.5315    0.9700    0.9956 C   0  0  0  0  0  0  0  0  0  0  0  0
    3.7352    0.7548    2.3169 F   0  0  0  0  0  0  0  0  0  0  0  0
    2.3012    0.6598    0.4081 C   0  0  0  0  0  0  0  0  0  0  0  0
   -1.4836   -0.3111   -1.3246 N   0  0  0  0  0  0  0  0  0  0  0  0
   -2.6386   -0.8534   -0.7196 C   0  0  0  0  0  0  0  0  0  0  0  0
   -3.8352   -1.0644   -1.5990 C   0  0  0  0  0  0  0  0  0  0  0  0
   -4.6172   -2.2328   -1.1162 C   0  0  0  0  0  0  0  0  0  0  0  0
   -4.5059   -1.8225    0.6624 S   0  0  0  0  0  0  0  0  0  0  0  0
   -2.7865   -1.1741    0.5207 C   0  0  0  0  0  0  0  0  0  0  0  0
   -1.9262   -1.1165    1.6881 C   0  0  0  0  0  0  0  0  0  0  0  0
   -2.2983   -1.4945    2.8209 O   0  0  0  0  0  0  0  0  0  0  0  0
   -5.6848   -0.5938    1.3057 Cl  0  0  0  0  0  0  0  0  0  0  0  0
  1  2  2  0
  2  3  1  0
  3  4  1  0
  4  5  2  0
  5  6  1  0
  6  7  1  0
  6  8  2  0
  8  9  1  0
  9 10  1  0
  9 11  2  0
  2 12  1  0
 12 13  1  0
 13 14  1  0
 14 15  1  0
 15 16  1  0
 16 17  1  0
 17 18  1  0
 18 19  2  0
 16 20  1  0
 11  4  1  0
 13 17  2  0
M  END
$$$$
