
     RDKit          3D

 22 25  0  0  0  0  0  0  0  0999 V2000
    0.5492    3.9184   -0.4247 O   0  0  0  0  0  0  0  0  0  0  0  0
    0.3575    2.7139   -0.1124 C   0  0  0  0  0  0  0  0  0  0  0  0
    1.5773    1.9600   -0.0187 N   0  0  0  0  0  0  0  0  0  0  0  0
    1.9378    0.5803    0.0511 C   0  0  0  0  0  0  0  0  0  0  0  0
    3.3056    0.5162    0.1234 C   0  0  0  0  0  0  0  0  0  0  0  0
    3.9882   -0.6862    0.2031 C   0  0  0  0  0  0  0  0  0  0  0  0
    5.7468   -0.7433    0.2951 Cl  0  0  0  0  0  0  0  0  0  0  0  0
    3.2266   -1.8353    0.2070 C   0  0  0  0  0  0  0  0  0  0  0  0
    1.8429   -1.7814    0.1342 C   0  0  0  0  0  0  0  0  0  0  0  0
    0.8705   -3.2523    0.1393 Cl  0  0  0  0  0  0  0  0  0  0  0  0
    1.1831   -0.5727    0.0555 C   0  0  0  0  0  0  0  0  0  0  0  0
   -1.0248    2.4133    0.0670 N   0  0  0  0  0  0  0  0  0  0  0  0
   -1.7719    1.1810    0.0741 C   0  0  0  0  0  0  0  0  0  0  0  0
   -3.2740    1.3536    0.1155 C   0  0  0  0  0  0  0  0  0  0  0  0
   -3.6080    0.1128    0.9721 C   0  0  0  0  0  0  0  0  0  0  0  0
   -2.7811   -0.8556    0.1066 C   0  0  0  0  0  0  0  0  0  0  0  0
   -1.5003   -0.1180    0.0538 C   0  0  0  0  0  0  0  0  0  0  0  0
   -0.2492   -0.8636   -0.0069 C   0  0  0  0  0  0  0  0  0  0  0  0
   -0.4375   -2.0858   -0.1516 O   0  0  0  0  0  0  0  0  0  0  0  0
   -3.4701   -0.6749   -1.2175 C   0  0  0  0  0  0  0  0  0  0  0  0
   -3.7408    0.8177   -1.2491 C   0  0  0  0  0  0  0  0  0  0  0  0
   -2.7279   -2.0981    0.5833 F   0  0  0  0  0  0  0  0  0  0  0  0
  1  2  2  0
  2  3  1  0
  3  4  1  0
  4  5  2  0
  5  6  1  0
  6  7  1  0
  6  8  2  0
  8  9  1  0
  9 10  1  0
  9 11  2  0
  2 12  1  0
 12 13  1  0
 13 14  1  0
 14 15  1  0
 15 16  1  0
 16 17  1  0
 17 18  1  0
 18 19  2  0
 16 20  1  0
 20 21  1  0
 16 22  1  0
 11  4  1  0
 18 11  1  0
 13 17  2  0
 21 14  1  0
M  END
$$$$
