
     RDKit          3D

 27 31  0  0  0  0  0  0  0  0999 V2000
   -3.4321   -0.5002    1.3866 O   0  0  0  0  0  0  0  0  0  0  0  0
   -2.8975    0.4202    0.7205 C   0  0  0  0  0  0  0  0  0  0  0  0
   -3.7395    1.4503    0.2794 N   0  0  0  0  0  0  0  0  0  0  0  0
   -5.0947    1.6357    0.4586 C   0  0  0  0  0  0  0  0  0  0  0  0
   -6.1636    1.5147   -0.5247 C   0  0  0  0  0  0  0  0  0  0  0  0
   -6.1457    0.7055    0.7743 C   0  0  0  0  0  0  0  0  0  0  0  0
   -6.1076   -0.7266    0.6102 C   0  0  0  0  0  0  0  0  0  0  0  0
   -6.0946   -1.3232   -0.5487 C   0  0  0  0  0  0  0  0  0  0  0  0
   -6.1176   -0.5590   -1.7640 C   0  0  0  0  0  0  0  0  0  0  0  0
   -6.1495    0.7500   -1.7318 C   0  0  0  0  0  0  0  0  0  0  0  0
   -1.5301    0.4267    0.4252 N   0  0  0  0  0  0  0  0  0  0  0  0
   -0.9576    1.5060   -0.3492 C   0  0  0  0  0  0  0  0  0  0  0  0
   -0.2419    0.9406   -1.5532 C   0  0  0  0  0  0  0  0  0  0  0  0
    0.5762   -0.2463   -1.2229 C   0  0  0  0  0  0  0  0  0  0  0  0
    1.9231    0.1125   -0.7393 C   0  0  0  0  0  0  0  0  0  0  0  0
    2.9987   -0.6918   -0.6054 N   0  0  0  0  0  0  0  0  0  0  0  0
    4.0411    0.0048   -0.1391 C   0  0  0  0  0  0  0  0  0  0  0  0
    5.3953   -0.5004    0.1342 C   0  0  0  0  0  0  0  0  0  0  0  0
    6.3921    0.3044    0.6182 C   0  0  0  0  0  0  0  0  0  0  0  0
    7.6454   -0.2221    0.8635 C   0  0  0  0  0  0  0  0  0  0  0  0
    7.9208   -1.5517    0.6290 C   0  0  0  0  0  0  0  0  0  0  0  0
    6.8909   -2.3383    0.1401 C   0  0  0  0  0  0  0  0  0  0  0  0
    5.6695   -1.7807   -0.0876 N   0  0  0  0  0  0  0  0  0  0  0  0
    3.5891    1.2603    0.0138 N   0  0  0  0  0  0  0  0  0  0  0  0
    2.3473    1.3106   -0.3410 O   0  0  0  0  0  0  0  0  0  0  0  0
   -0.0429   -1.2623   -0.3391 C   0  0  0  0  0  0  0  0  0  0  0  0
   -0.6744   -0.6398    0.8687 C   0  0  0  0  0  0  0  0  0  0  0  0
  1  2  2  0
  2  3  1  0
  3  4  1  0
  4  5  1  0
  5  6  1  0
  6  7  1  0
  7  8  2  0
  8  9  1  0
  9 10  2  0
  2 11  1  0
 11 12  1  0
 12 13  1  0
 13 14  1  0
 14 15  1  0
 15 16  2  0
 16 17  1  0
 17 18  1  0
 18 19  2  0
 19 20  1  0
 20 21  2  0
 21 22  1  0
 22 23  2  0
 17 24  2  0
 24 25  1  0
 14 26  1  0
 26 27  1  0
  6  4  1  0
 10  5  1  0
 27 11  1  0
 25 15  1  0
 23 18  1  0
M  END
$$$$
