
     RDKit          3D

 30 34  0  0  0  0  0  0  0  0999 V2000
    2.0854   -1.6256   -1.2283 O   0  0  0  0  0  0  0  0  0  0  0  0
    2.4602   -1.4272   -0.0458 C   0  0  0  0  0  0  0  0  0  0  0  0
    3.8145   -1.6772    0.3294 N   0  0  0  0  0  0  0  0  0  0  0  0
    4.6956   -2.1641   -0.7105 C   0  0  0  0  0  0  0  0  0  0  0  0
    6.1206   -2.5378   -0.3179 C   0  0  0  0  0  0  0  0  0  0  0  0
    5.8384   -1.3568   -1.1511 C   0  0  0  0  0  0  0  0  0  0  0  0
    6.1564   -0.0341   -0.5695 C   0  0  0  0  0  0  0  0  0  0  0  0
    5.2063    0.9342   -0.4707 C   0  0  0  0  0  0  0  0  0  0  0  0
    5.4563    2.1871    0.0654 C   0  0  0  0  0  0  0  0  0  0  0  0
    6.7417    2.4519    0.5189 C   0  0  0  0  0  0  0  0  0  0  0  0
    7.7088    1.4762    0.4219 C   0  0  0  0  0  0  0  0  0  0  0  0
    7.4394    0.2358   -0.1148 C   0  0  0  0  0  0  0  0  0  0  0  0
    1.4733   -0.9538    0.8620 N   0  0  0  0  0  0  0  0  0  0  0  0
    0.1182   -0.7084    0.4868 C   0  0  0  0  0  0  0  0  0  0  0  0
   -0.2242   -1.0950   -0.9210 C   0  0  0  0  0  0  0  0  0  0  0  0
   -1.3615   -0.2738   -1.4536 C   0  0  0  0  0  0  0  0  0  0  0  0
   -2.6089   -0.4836   -0.6736 C   0  0  0  0  0  0  0  0  0  0  0  0
   -3.7023    0.2829   -0.8364 N   0  0  0  0  0  0  0  0  0  0  0  0
   -4.6789   -0.1316   -0.0042 C   0  0  0  0  0  0  0  0  0  0  0  0
   -6.0213    0.4573    0.1118 C   0  0  0  0  0  0  0  0  0  0  0  0
   -6.3550    1.5264   -0.6810 C   0  0  0  0  0  0  0  0  0  0  0  0
   -7.6046    2.0701   -0.5709 C   0  0  0  0  0  0  0  0  0  0  0  0
   -8.5161    1.5586    0.3166 C   0  0  0  0  0  0  0  0  0  0  0  0
   -8.1566    0.4872    1.0986 C   0  0  0  0  0  0  0  0  0  0  0  0
   -6.9187   -0.0301    0.9712 N   0  0  0  0  0  0  0  0  0  0  0  0
   -4.1518   -1.1663    0.6661 N   0  0  0  0  0  0  0  0  0  0  0  0
   -2.9134   -1.3577    0.2480 O   0  0  0  0  0  0  0  0  0  0  0  0
   -0.9293    1.1848   -1.3833 C   0  0  0  0  0  0  0  0  0  0  0  0
   -0.8330    1.5446    0.0653 C   0  0  0  0  0  0  0  0  0  0  0  0
   -0.3397    0.6259    0.8818 C   0  0  0  0  0  0  0  0  0  0  0  0
  1  2  2  0
  2  3  1  0
  3  4  1  0
  4  5  1  0
  5  6  1  0
  6  7  1  0
  7  8  2  0
  8  9  1  0
  9 10  2  0
 10 11  1  0
 11 12  2  0
  2 13  1  0
 13 14  1  0
 14 15  1  0
 15 16  1  0
 16 17  1  0
 17 18  2  0
 18 19  1  0
 19 20  1  0
 20 21  2  0
 21 22  1  0
 22 23  2  0
 23 24  1  0
 24 25  2  0
 19 26  2  0
 26 27  1  0
 16 28  1  0
 28 29  1  0
 29 30  2  0
  6  4  1  0
 12  7  1  0
 30 14  1  0
 27 17  1  0
 25 20  1  0
M  END
$$$$
