
     RDKit          3D

 29 32  0  0  0  0  0  0  0  0999 V2000
   -0.5839    1.8919    1.0485 O   0  0  0  0  0  0  0  0  0  0  0  0
   -0.2345    0.6916    0.8412 C   0  0  0  0  0  0  0  0  0  0  0  0
    0.9695    0.2430    0.1656 N   0  0  0  0  0  0  0  0  0  0  0  0
    2.2697    0.7725    0.0223 C   0  0  0  0  0  0  0  0  0  0  0  0
    3.3341    0.1127    0.5522 C   0  0  0  0  0  0  0  0  0  0  0  0
    4.6159    0.6018    0.4422 C   0  0  0  0  0  0  0  0  0  0  0  0
    4.8047    1.7892   -0.2245 C   0  0  0  0  0  0  0  0  0  0  0  0
    6.0497    2.3239   -0.3676 F   0  0  0  0  0  0  0  0  0  0  0  0
    3.7369    2.4745   -0.7700 C   0  0  0  0  0  0  0  0  0  0  0  0
    4.0305    3.9851   -1.6108 Cl  0  0  0  0  0  0  0  0  0  0  0  0
    2.4530    1.9599   -0.6456 C   0  0  0  0  0  0  0  0  0  0  0  0
    0.2284   -0.9243   -0.2430 C   0  0  0  0  0  0  0  0  0  0  0  0
    1.0487   -2.1509   -0.0496 C   0  0  0  0  0  0  0  0  0  0  0  0
    1.7971   -2.3148    1.0824 C   0  0  0  0  0  0  0  0  0  0  0  0
    2.5509   -3.4296    1.2988 C   0  0  0  0  0  0  0  0  0  0  0  0
    2.5353   -4.4047    0.3222 C   0  0  0  0  0  0  0  0  0  0  0  0
    1.7728   -4.2047   -0.7985 C   0  0  0  0  0  0  0  0  0  0  0  0
    1.0393   -3.0996   -0.9882 N   0  0  0  0  0  0  0  0  0  0  0  0
   -0.6000   -0.6767    1.0339 C   0  0  0  0  0  0  0  0  0  0  0  0
   -1.9007   -1.2498    1.0890 C   0  0  0  0  0  0  0  0  0  0  0  0
   -2.9018   -1.2766    0.0497 C   0  0  0  0  0  0  0  0  0  0  0  0
   -3.3021   -0.0070   -0.4100 N   0  0  0  0  0  0  0  0  0  0  0  0
   -4.5826    0.5051   -0.0887 C   0  0  0  0  0  0  0  0  0  0  0  0
   -4.8846    1.6150    0.5159 N   0  0  0  0  0  0  0  0  0  0  0  0
   -6.2966    1.7898    0.6620 C   0  0  0  0  0  0  0  0  0  0  0  0
   -6.8610    0.4036    0.3992 C   0  0  0  0  0  0  0  0  0  0  0  0
   -5.7932   -0.1913   -0.4181 N   0  0  0  0  0  0  0  0  0  0  0  0
   -2.4062    0.7824   -1.2069 C   0  0  0  0  0  0  0  0  0  0  0  0
   -2.8891    1.9879   -1.6093 F   0  0  0  0  0  0  0  0  0  0  0  0
  1  2  2  0
  2  3  1  0
  3  4  1  0
  4  5  2  0
  5  6  1  0
  6  7  2  0
  7  8  1  0
  7  9  1  0
  9 10  1  0
  9 11  2  0
  3 12  1  0
 12 13  1  0
 13 14  2  0
 14 15  1  0
 15 16  2  0
 16 17  1  0
 17 18  2  0
 12 19  1  0
 19 20  1  0
 20 21  1  0
 21 22  1  0
 22 23  1  0
 23 24  2  0
 24 25  1  0
 25 26  1  0
 26 27  1  0
 22 28  1  0
 28 29  1  0
 19  2  1  0
 11  4  1  0
 18 13  1  0
 27 23  1  0
M  END
$$$$
