
     RDKit          3D

 24 26  0  0  0  0  0  0  0  0999 V2000
   -1.3802   -0.8929    1.4837 O   0  0  0  0  0  0  0  0  0  0  0  0
   -0.9603   -0.5756    0.3576 C   0  0  0  0  0  0  0  0  0  0  0  0
    0.3250   -0.2956   -0.1531 N   0  0  0  0  0  0  0  0  0  0  0  0
    1.6132   -0.7827    0.1731 C   0  0  0  0  0  0  0  0  0  0  0  0
    1.8172   -1.4090    1.3771 C   0  0  0  0  0  0  0  0  0  0  0  0
    3.0514   -1.8968    1.7363 C   0  0  0  0  0  0  0  0  0  0  0  0
    4.1371   -1.7778    0.9021 C   0  0  0  0  0  0  0  0  0  0  0  0
    5.3609   -2.2561    1.2504 F   0  0  0  0  0  0  0  0  0  0  0  0
    3.9095   -1.1424   -0.3085 C   0  0  0  0  0  0  0  0  0  0  0  0
    5.3036   -0.9903   -1.3758 Cl  0  0  0  0  0  0  0  0  0  0  0  0
    2.6847   -0.6501   -0.6824 C   0  0  0  0  0  0  0  0  0  0  0  0
   -0.2964    0.6370   -1.0749 C   0  0  0  0  0  0  0  0  0  0  0  0
   -0.5541    1.9466   -0.4275 C   0  0  0  0  0  0  0  0  0  0  0  0
   -0.1737    3.0897   -1.0930 C   0  0  0  0  0  0  0  0  0  0  0  0
   -0.3847    4.3519   -0.5537 C   0  0  0  0  0  0  0  0  0  0  0  0
   -0.9992    4.3970    0.6901 C   0  0  0  0  0  0  0  0  0  0  0  0
   -1.3735    3.2630    1.3449 C   0  0  0  0  0  0  0  0  0  0  0  0
   -1.1416    2.0655    0.7696 N   0  0  0  0  0  0  0  0  0  0  0  0
   -1.4840   -0.3219   -0.9903 C   0  0  0  0  0  0  0  0  0  0  0  0
   -2.8320    0.3484   -1.0383 C   0  0  0  0  0  0  0  0  0  0  0  0
   -3.9232   -0.4045   -0.3758 C   0  0  0  0  0  0  0  0  0  0  0  0
   -4.1671   -1.7103   -0.9268 N   0  0  0  0  0  0  0  0  0  0  0  0
   -5.4647   -2.5166   -0.0855 Cl  0  0  0  0  0  0  0  0  0  0  0  0
   -3.0680   -2.4767   -0.9993 F   0  0  0  0  0  0  0  0  0  0  0  0
  1  2  2  0
  2  3  1  0
  3  4  1  0
  4  5  2  0
  5  6  1  0
  6  7  2  0
  7  8  1  0
  7  9  1  0
  9 10  1  0
  9 11  2  0
  3 12  1  0
 12 13  1  0
 13 14  2  0
 14 15  1  0
 15 16  2  0
 16 17  1  0
 17 18  2  0
 12 19  1  0
 19 20  1  0
 20 21  1  0
 21 22  1  0
 22 23  1  0
 22 24  1  0
 19  2  1  0
 11  4  1  0
 18 13  1  0
M  END
$$$$
