
     RDKit          3D

 31 36  0  0  0  0  0  0  0  0999 V2000
    3.3066   -0.0524   -0.7102 O   0  0  0  0  0  0  0  0  0  0  0  0
    2.3705    0.4165    0.0299 C   0  0  0  0  0  0  0  0  0  0  0  0
    2.8194    1.3224    1.0456 N   0  0  0  0  0  0  0  0  0  0  0  0
    4.2234    1.6396    1.1745 C   0  0  0  0  0  0  0  0  0  0  0  0
    4.5550    1.8052    2.6971 C   0  0  0  0  0  0  0  0  0  0  0  0
    5.2062    0.7330    1.7617 C   0  0  0  0  0  0  0  0  0  0  0  0
    6.6455    1.0914    1.5109 C   0  0  0  0  0  0  0  0  0  0  0  0
    7.5132    1.2771    2.5683 C   0  0  0  0  0  0  0  0  0  0  0  0
    8.8325    1.6084    2.3233 C   0  0  0  0  0  0  0  0  0  0  0  0
    9.3175    1.7616    1.0480 C   0  0  0  0  0  0  0  0  0  0  0  0
    8.4534    1.5779   -0.0302 C   0  0  0  0  0  0  0  0  0  0  0  0
    7.1619    1.2527    0.2365 C   0  0  0  0  0  0  0  0  0  0  0  0
    1.0363    0.0645   -0.1514 N   0  0  0  0  0  0  0  0  0  0  0  0
   -0.0016    0.7301    0.8663 C   0  0  0  0  0  0  0  0  0  0  0  0
   -1.3220    0.4250    0.1931 C   0  0  0  0  0  0  0  0  0  0  0  0
   -1.5574   -0.8059   -0.5638 C   0  0  0  0  0  0  0  0  0  0  0  0
   -2.8821   -1.2124   -0.8596 C   0  0  0  0  0  0  0  0  0  0  0  0
   -4.0186   -0.6039   -0.3869 N   0  0  0  0  0  0  0  0  0  0  0  0
   -5.1217   -1.2502   -0.8671 C   0  0  0  0  0  0  0  0  0  0  0  0
   -6.4876   -0.8786   -0.5724 C   0  0  0  0  0  0  0  0  0  0  0  0
   -7.5386   -1.5736   -1.1010 C   0  0  0  0  0  0  0  0  0  0  0  0
   -8.8612   -1.1913   -0.8109 C   0  0  0  0  0  0  0  0  0  0  0  0
   -9.1056   -0.1170    0.0057 C   0  0  0  0  0  0  0  0  0  0  0  0
   -7.9987    0.5635    0.5241 C   0  0  0  0  0  0  0  0  0  0  0  0
   -6.7508    0.1595    0.2171 N   0  0  0  0  0  0  0  0  0  0  0  0
   -4.6207   -2.2269   -1.6133 N   0  0  0  0  0  0  0  0  0  0  0  0
   -3.3331   -2.2140   -1.6154 O   0  0  0  0  0  0  0  0  0  0  0  0
   -0.4803   -1.9051   -0.3178 C   0  0  0  0  0  0  0  0  0  0  0  0
    0.2179   -0.6572   -0.8829 C   0  0  0  0  0  0  0  0  0  0  0  0
   -0.5651   -0.8023   -1.8561 C   0  0  0  0  0  0  0  0  0  0  0  0
   -1.0142   -0.9373   -3.1319 O   0  0  0  0  0  0  0  0  0  0  0  0
  1  2  2  0
  2  3  1  0
  3  4  1  0
  4  5  1  0
  5  6  1  0
  6  7  1  0
  7  8  2  0
  8  9  1  0
  9 10  2  0
 10 11  1  0
 11 12  2  0
  2 13  1  0
 13 14  1  0
 14 15  1  0
 15 16  1  0
 16 17  1  0
 17 18  2  0
 18 19  1  0
 19 20  1  0
 20 21  2  0
 21 22  1  0
 22 23  2  0
 23 24  1  0
 24 25  2  0
 19 26  2  0
 26 27  1  0
 16 28  1  0
 28 29  1  0
 29 30  2  0
 30 31  1  0
  6  4  1  0
 12  7  1  0
 29 13  1  0
 30 16  1  0
 27 17  1  0
 25 20  1  0
M  END
$$$$
