
     RDKit          3D

 27 31  0  0  0  0  0  0  0  0999 V2000
    1.8452    0.6875   -0.2422 O   0  0  0  0  0  0  0  0  0  0  0  0
    1.7996   -0.5288   -0.5525 C   0  0  0  0  0  0  0  0  0  0  0  0
    2.3947   -0.9792   -1.7334 N   0  0  0  0  0  0  0  0  0  0  0  0
    3.1077   -0.1473   -2.6708 C   0  0  0  0  0  0  0  0  0  0  0  0
    3.5045    1.2410   -2.3379 C   0  0  0  0  0  0  0  0  0  0  0  0
    4.5540    0.1175   -2.5073 C   0  0  0  0  0  0  0  0  0  0  0  0
    5.3018   -0.1625   -1.2747 C   0  0  0  0  0  0  0  0  0  0  0  0
    4.7748   -0.5357   -0.0659 C   0  0  0  0  0  0  0  0  0  0  0  0
    5.5054   -0.7865    1.0736 C   0  0  0  0  0  0  0  0  0  0  0  0
    6.8594   -0.6589    1.0088 C   0  0  0  0  0  0  0  0  0  0  0  0
    7.4650   -0.2899   -0.1600 C   0  0  0  0  0  0  0  0  0  0  0  0
    6.6878   -0.0426   -1.2970 C   0  0  0  0  0  0  0  0  0  0  0  0
    1.1473   -1.4892    0.2843 N   0  0  0  0  0  0  0  0  0  0  0  0
    0.5557   -1.0203    1.5280 C   0  0  0  0  0  0  0  0  0  0  0  0
    0.6570    0.3429    1.8275 C   0  0  0  0  0  0  0  0  0  0  0  0
   -0.5833   -0.1503    1.4437 C   0  0  0  0  0  0  0  0  0  0  0  0
   -1.9641    0.3186    1.2220 C   0  0  0  0  0  0  0  0  0  0  0  0
   -3.0208   -0.3946    0.8412 N   0  0  0  0  0  0  0  0  0  0  0  0
   -4.0927    0.4248    0.7621 C   0  0  0  0  0  0  0  0  0  0  0  0
   -5.4691    0.0792    0.3968 C   0  0  0  0  0  0  0  0  0  0  0  0
   -6.4138    1.0819    0.3579 C   0  0  0  0  0  0  0  0  0  0  0  0
   -7.6955    0.7478    0.0196 C   0  0  0  0  0  0  0  0  0  0  0  0
   -8.0219   -0.5701   -0.2740 C   0  0  0  0  0  0  0  0  0  0  0  0
   -7.0836   -1.5740   -0.2367 C   0  0  0  0  0  0  0  0  0  0  0  0
   -5.7947   -1.2159    0.1076 C   0  0  0  0  0  0  0  0  0  0  0  0
   -3.6430    1.6422    1.1057 N   0  0  0  0  0  0  0  0  0  0  0  0
   -2.3774    1.5534    1.3735 O   0  0  0  0  0  0  0  0  0  0  0  0
  1  2  2  0
  2  3  1  0
  3  4  1  0
  4  5  1  0
  5  6  1  0
  6  7  1  0
  7  8  2  0
  8  9  1  0
  9 10  2  0
 10 11  1  0
 11 12  2  0
  2 13  1  0
 13 14  1  0
 14 15  1  0
 15 16  2  0
 16 17  1  0
 17 18  2  0
 18 19  1  0
 19 20  1  0
 20 21  2  0
 21 22  1  0
 22 23  2  0
 23 24  1  0
 24 25  2  0
 19 26  2  0
 26 27  1  0
  6  4  1  0
 12  7  1  0
 16 14  1  0
 27 17  1  0
 25 20  1  0
M  END
$$$$
