
     RDKit          3D

 29 32  0  0  0  0  0  0  0  0999 V2000
   -1.1091   -0.9599    1.5452 O   0  0  0  0  0  0  0  0  0  0  0  0
   -1.5384   -0.7958    0.3902 C   0  0  0  0  0  0  0  0  0  0  0  0
   -2.9031   -0.4669    0.0987 N   0  0  0  0  0  0  0  0  0  0  0  0
   -3.8552   -0.3158    1.2097 C   0  0  0  0  0  0  0  0  0  0  0  0
   -3.4419    0.7233    2.2781 C   0  0  0  0  0  0  0  0  0  0  0  0
   -4.4866    1.0800    1.2594 C   0  0  0  0  0  0  0  0  0  0  0  0
   -5.8885    1.0483    1.7486 C   0  0  0  0  0  0  0  0  0  0  0  0
   -6.9206    1.5219    0.9779 C   0  0  0  0  0  0  0  0  0  0  0  0
   -8.2363    1.4929    1.4291 C   0  0  0  0  0  0  0  0  0  0  0  0
   -8.5138    0.9793    2.6763 C   0  0  0  0  0  0  0  0  0  0  0  0
   -7.5047    0.4940    3.4807 C   0  0  0  0  0  0  0  0  0  0  0  0
   -6.2000    0.5398    2.9941 C   0  0  0  0  0  0  0  0  0  0  0  0
   -0.5763   -0.9550   -0.6786 N   0  0  0  0  0  0  0  0  0  0  0  0
    0.8174   -1.2975   -0.3215 C   0  0  0  0  0  0  0  0  0  0  0  0
    1.4120   -0.2479    0.5501 C   0  0  0  0  0  0  0  0  0  0  0  0
    2.8221   -0.4902    0.9791 C   0  0  0  0  0  0  0  0  0  0  0  0
    3.5347   -1.3867    0.0476 C   0  0  0  0  0  0  0  0  0  0  0  0
    4.1702   -1.0187   -1.0741 N   0  0  0  0  0  0  0  0  0  0  0  0
    4.6892   -2.1134   -1.6389 C   0  0  0  0  0  0  0  0  0  0  0  0
    5.4848   -2.1028   -2.8764 C   0  0  0  0  0  0  0  0  0  0  0  0
    5.6971   -0.9500   -3.4712 C   0  0  0  0  0  0  0  0  0  0  0  0
    5.1544    0.2614   -2.9149 C   0  0  0  0  0  0  0  0  0  0  0  0
    5.3599    1.4273   -3.4794 C   0  0  0  0  0  0  0  0  0  0  0  0
    4.7312    2.5606   -2.7760 C   0  0  0  0  0  0  0  0  0  0  0  0
    4.2386    3.4446   -2.2316 N   0  0  0  0  0  0  0  0  0  0  0  0
    4.3665   -3.1406   -0.8606 N   0  0  0  0  0  0  0  0  0  0  0  0
    3.6785   -2.6850    0.1400 O   0  0  0  0  0  0  0  0  0  0  0  0
    3.1147    0.9848    0.7118 C   0  0  0  0  0  0  0  0  0  0  0  0
    1.9032    0.9933   -0.1936 C   0  0  0  0  0  0  0  0  0  0  0  0
  1  2  2  0
  2  3  1  0
  3  4  1  0
  4  5  1  0
  5  6  1  0
  6  7  1  0
  7  8  2  0
  8  9  1  0
  9 10  2  0
 10 11  1  0
 11 12  2  0
  2 13  1  0
 13 14  1  0
 14 15  1  0
 15 16  1  0
 16 17  1  0
 17 18  2  0
 18 19  1  0
 19 20  1  0
 20 21  2  3
 21 22  1  0
 22 23  2  3
 23 24  1  0
 24 25  3  0
 19 26  2  0
 26 27  1  0
 16 28  1  0
 28 29  1  0
  6  4  1  0
 12  7  1  0
 29 15  1  0
 27 17  1  0
M  END
$$$$
