
     RDKit          3D

 11 11  0  0  0  0  0  0  0  0999 V2000
    3.4668    0.5878    0.7428 O   0  0  0  0  0  0  0  0  0  0  0  0
    2.9281   -0.1790   -0.1088 C   0  0  0  0  0  0  0  0  0  0  0  0
    1.5273   -0.4834    0.0615 N   0  0  0  0  0  0  0  0  0  0  0  0
    0.8707    0.1096    1.1798 C   0  0  0  0  0  0  0  0  0  0  0  0
   -0.4115    0.4709    1.2394 C   0  0  0  0  0  0  0  0  0  0  0  0
   -1.4629    0.3701    0.2299 C   0  0  0  0  0  0  0  0  0  0  0  0
   -2.6973    0.6825    0.5990 C   0  0  0  0  0  0  0  0  0  0  0  0
   -3.6656    0.5904   -0.3281 F   0  0  0  0  0  0  0  0  0  0  0  0
    0.9296   -1.3513   -0.9074 C   0  0  0  0  0  0  0  0  0  0  0  0
   -0.2465   -0.7557   -1.5899 C   0  0  0  0  0  0  0  0  0  0  0  0
   -1.2389   -0.0417   -1.1183 N   0  0  0  0  0  0  0  0  0  0  0  0
  1  2  2  0
  2  3  1  0
  3  4  1  0
  4  5  2  0
  5  6  1  0
  6  7  2  3
  7  8  1  0
  3  9  1  0
  9 10  1  0
 10 11  2  0
 11  6  1  0
M  END
$$$$
