
     RDKit          3D

 11 11  0  0  0  0  0  0  0  0999 V2000
    3.2495    1.0889    0.5061 O   0  0  0  0  0  0  0  0  0  0  0  0
    2.8782    0.0016   -0.0039 C   0  0  0  0  0  0  0  0  0  0  0  0
    1.4992   -0.3597    0.1937 N   0  0  0  0  0  0  0  0  0  0  0  0
    0.6754    0.5471    0.9503 C   0  0  0  0  0  0  0  0  0  0  0  0
   -0.6458    0.7577    0.7627 C   0  0  0  0  0  0  0  0  0  0  0  0
   -1.5231    0.1391   -0.2167 C   0  0  0  0  0  0  0  0  0  0  0  0
   -2.7977    0.3831   -0.0827 C   0  0  0  0  0  0  0  0  0  0  0  0
   -3.2143    1.1743    0.9304 F   0  0  0  0  0  0  0  0  0  0  0  0
    1.0276   -1.6011   -0.3709 C   0  0  0  0  0  0  0  0  0  0  0  0
   -0.0401   -1.4383   -1.3825 C   0  0  0  0  0  0  0  0  0  0  0  0
   -1.1090   -0.6927   -1.2865 N   0  0  0  0  0  0  0  0  0  0  0  0
  1  2  2  0
  2  3  1  0
  3  4  1  0
  4  5  2  0
  5  6  1  0
  6  7  2  3
  7  8  1  0
  3  9  1  0
  9 10  1  0
 10 11  2  0
 11  6  1  0
M  END
$$$$
