
     RDKit          3D

 11 11  0  0  0  0  0  0  0  0999 V2000
   -3.7877    0.8457    1.2366 O   0  0  0  0  0  0  0  0  0  0  0  0
   -3.2242    0.1213    0.4089 C   0  0  0  0  0  0  0  0  0  0  0  0
   -1.8079   -0.0533    0.3416 N   0  0  0  0  0  0  0  0  0  0  0  0
   -0.9452    0.6184    1.2520 C   0  0  0  0  0  0  0  0  0  0  0  0
    0.3669    0.4561    1.1890 C   0  0  0  0  0  0  0  0  0  0  0  0
    0.9548   -0.4180    0.1807 C   0  0  0  0  0  0  0  0  0  0  0  0
    2.2788   -0.5920    0.1046 C   0  0  0  0  0  0  0  0  0  0  0  0
    3.2082    0.0902    1.0347 C   0  0  0  0  0  0  0  0  0  0  0  0
    4.1027    0.9040    0.3857 F   0  0  0  0  0  0  0  0  0  0  0  0
   -1.2107   -0.8999   -0.6320 C   0  0  0  0  0  0  0  0  0  0  0  0
    0.0644   -1.0725   -0.7115 N   0  0  0  0  0  0  0  0  0  0  0  0
  1  2  2  0
  2  3  1  0
  3  4  1  0
  4  5  2  0
  5  6  1  0
  6  7  2  3
  7  8  1  0
  8  9  1  0
  3 10  1  0
 10 11  2  0
 11  6  1  0
M  END
$$$$
