
     RDKit          3D

 11 11  0  0  0  0  0  0  0  0999 V2000
    3.6710    0.5943   -0.4852 O   0  0  0  0  0  0  0  0  0  0  0  0
    2.6775    1.0043    0.1304 C   0  0  0  0  0  0  0  0  0  0  0  0
    1.4676    0.2272    0.2217 N   0  0  0  0  0  0  0  0  0  0  0  0
    0.4260    0.8689    0.9764 C   0  0  0  0  0  0  0  0  0  0  0  0
   -0.8970    0.6765    0.8346 C   0  0  0  0  0  0  0  0  0  0  0  0
   -1.5833   -0.2103   -0.0985 C   0  0  0  0  0  0  0  0  0  0  0  0
   -2.8874   -0.2788    0.1191 C   0  0  0  0  0  0  0  0  0  0  0  0
   -3.4972    0.4092    1.1077 F   0  0  0  0  0  0  0  0  0  0  0  0
    1.4088   -1.0427   -0.4092 C   0  0  0  0  0  0  0  0  0  0  0  0
    0.2387   -1.2904   -1.2479 C   0  0  0  0  0  0  0  0  0  0  0  0
   -1.0249   -0.9583   -1.1492 N   0  0  0  0  0  0  0  0  0  0  0  0
  1  2  2  0
  2  3  1  0
  3  4  1  0
  4  5  2  0
  5  6  1  0
  6  7  2  3
  7  8  1  0
  3  9  1  0
  9 10  1  0
 10 11  2  0
 11  6  1  0
M  END
$$$$
