
     RDKit          3D

 28 32  0  0  0  0  0  0  0  0999 V2000
   -3.1810   -0.0216    0.7692 O   0  0  0  0  0  0  0  0  0  0  0  0
   -2.4028   -0.1341   -0.2085 C   0  0  0  0  0  0  0  0  0  0  0  0
   -2.8824    0.2508   -1.4901 N   0  0  0  0  0  0  0  0  0  0  0  0
   -4.2033    0.7585   -1.7333 C   0  0  0  0  0  0  0  0  0  0  0  0
   -5.2807    0.4433   -0.7661 C   0  0  0  0  0  0  0  0  0  0  0  0
   -4.8212    1.7033   -0.7985 C   0  0  0  0  0  0  0  0  0  0  0  0
   -5.4017    2.7213    0.1237 C   0  0  0  0  0  0  0  0  0  0  0  0
   -6.8805    2.4885    0.1901 C   0  0  0  0  0  0  0  0  0  0  0  0
   -7.3538    1.2492    0.2289 C   0  0  0  0  0  0  0  0  0  0  0  0
   -6.3555    0.1407    0.2028 C   0  0  0  0  0  0  0  0  0  0  0  0
   -1.0757   -0.6365   -0.0237 N   0  0  0  0  0  0  0  0  0  0  0  0
   -0.6098   -1.0227    1.2924 C   0  0  0  0  0  0  0  0  0  0  0  0
   -0.1517   -2.4772    1.1847 C   0  0  0  0  0  0  0  0  0  0  0  0
    0.8545   -2.7041    0.1115 C   0  0  0  0  0  0  0  0  0  0  0  0
    2.1209   -1.9677    0.4412 C   0  0  0  0  0  0  0  0  0  0  0  0
    2.7692   -1.0510   -0.3058 N   0  0  0  0  0  0  0  0  0  0  0  0
    3.8711   -0.6133    0.3264 C   0  0  0  0  0  0  0  0  0  0  0  0
    4.8585    0.3661   -0.1070 C   0  0  0  0  0  0  0  0  0  0  0  0
    4.7908    1.0239   -1.3153 C   0  0  0  0  0  0  0  0  0  0  0  0
    5.7647    1.9529   -1.6828 C   0  0  0  0  0  0  0  0  0  0  0  0
    6.8130    2.2236   -0.8331 C   0  0  0  0  0  0  0  0  0  0  0  0
    6.8593    1.5542    0.3670 C   0  0  0  0  0  0  0  0  0  0  0  0
    5.8988    0.6653    0.6838 N   0  0  0  0  0  0  0  0  0  0  0  0
    3.8771   -1.2963    1.4924 N   0  0  0  0  0  0  0  0  0  0  0  0
    2.8372   -2.0840    1.5324 O   0  0  0  0  0  0  0  0  0  0  0  0
    0.3507   -2.2180   -1.2327 C   0  0  0  0  0  0  0  0  0  0  0  0
   -0.1498   -0.7794   -1.1289 C   0  0  0  0  0  0  0  0  0  0  0  0
   -0.9158   -0.5359   -2.3634 N   0  0  0  0  0  0  0  0  0  0  0  0
  1  2  2  0
  2  3  1  0
  3  4  1  0
  4  5  1  0
  5  6  2  0
  6  7  1  0
  7  8  1  0
  8  9  2  0
  9 10  1  0
  2 11  1  0
 11 12  1  0
 12 13  1  0
 13 14  1  0
 14 15  1  0
 15 16  2  0
 16 17  1  0
 17 18  1  0
 18 19  2  0
 19 20  1  0
 20 21  2  0
 21 22  1  0
 22 23  2  0
 17 24  2  0
 24 25  1  0
 14 26  1  0
 26 27  1  0
 27 28  1  0
  6  4  1  0
 10  5  1  0
 27 11  1  0
 25 15  1  0
 23 18  1  0
M  END
$$$$
