
     RDKit          3D

 20 22  0  0  0  0  0  0  0  0999 V2000
    0.5608    3.8321   -0.0616 O   0  0  0  0  0  0  0  0  0  0  0  0
    0.5095    2.5818    0.0751 C   0  0  0  0  0  0  0  0  0  0  0  0
   -0.8475    2.1616   -0.0535 N   0  0  0  0  0  0  0  0  0  0  0  0
   -1.4798    0.8793   -0.1704 C   0  0  0  0  0  0  0  0  0  0  0  0
   -2.7884    1.1363   -0.5424 C   0  0  0  0  0  0  0  0  0  0  0  0
   -3.6787    0.0969   -0.7412 C   0  0  0  0  0  0  0  0  0  0  0  0
   -5.3404    0.3705   -1.2113 Cl  0  0  0  0  0  0  0  0  0  0  0  0
   -3.1996   -1.1830   -0.5519 C   0  0  0  0  0  0  0  0  0  0  0  0
   -1.8920   -1.4413   -0.1800 C   0  0  0  0  0  0  0  0  0  0  0  0
   -1.4247   -2.6901    0.0045 F   0  0  0  0  0  0  0  0  0  0  0  0
   -1.0088   -0.3947    0.0164 C   0  0  0  0  0  0  0  0  0  0  0  0
    1.7242    1.9169    0.3097 N   0  0  0  0  0  0  0  0  0  0  0  0
    2.1562    0.5509    0.1166 C   0  0  0  0  0  0  0  0  0  0  0  0
    3.6413    0.4318    0.3685 C   0  0  0  0  0  0  0  0  0  0  0  0
    3.8272   -1.0208    0.7515 C   0  0  0  0  0  0  0  0  0  0  0  0
    2.5106   -1.5424    1.2123 C   0  0  0  0  0  0  0  0  0  0  0  0
    1.4907   -0.4267    1.0244 C   0  0  0  0  0  0  0  0  0  0  0  0
    0.2759   -0.9747    0.3964 C   0  0  0  0  0  0  0  0  0  0  0  0
    0.3069   -2.2053    0.1072 O   0  0  0  0  0  0  0  0  0  0  0  0
    4.6568   -2.0792   -0.8705 I   0  0  0  0  0  0  0  0  0  0  0  0
  1  2  2  0
  2  3  1  0
  3  4  1  0
  4  5  2  0
  5  6  1  0
  6  7  1  0
  6  8  2  0
  8  9  1  0
  9 10  1  0
  9 11  2  0
  2 12  1  0
 12 13  1  0
 13 14  1  0
 14 15  1  0
 15 16  1  0
 16 17  1  0
 17 18  1  0
 18 19  2  0
 15 20  1  0
 11  4  1  0
 18 11  1  0
 17 13  1  0
M  END
$$$$
