
     RDKit          3D

 12 12  0  0  0  0  0  0  0  0999 V2000
    3.7911    0.1663   -0.7190 O   0  0  0  0  0  0  0  0  0  0  0  0
    3.0892    0.0636    0.3110 C   0  0  0  0  0  0  0  0  0  0  0  0
    1.7242   -0.3967    0.2353 N   0  0  0  0  0  0  0  0  0  0  0  0
    1.1668   -0.4168    1.5434 C   0  0  0  0  0  0  0  0  0  0  0  0
   -0.1073   -0.3593    1.9363 C   0  0  0  0  0  0  0  0  0  0  0  0
   -1.4212   -0.2571    1.2633 C   0  0  0  0  0  0  0  0  0  0  0  0
   -1.7919    0.0489    0.0297 C   0  0  0  0  0  0  0  0  0  0  0  0
   -3.2611    0.0248   -0.2013 C   0  0  0  0  0  0  0  0  0  0  0  0
   -3.6126    1.3155   -0.6040 F   0  0  0  0  0  0  0  0  0  0  0  0
    1.2720   -0.7120   -1.0842 C   0  0  0  0  0  0  0  0  0  0  0  0
    0.1651    0.1199   -1.5775 C   0  0  0  0  0  0  0  0  0  0  0  0
   -1.0144    0.4029   -1.1330 N   0  0  0  0  0  0  0  0  0  0  0  0
  1  2  2  0
  2  3  1  0
  3  4  1  0
  4  5  2  3
  5  6  1  0
  6  7  2  3
  7  8  1  0
  8  9  1  0
  3 10  1  0
 10 11  1  0
 11 12  2  3
 12  7  1  0
M  END
$$$$
