
     RDKit          3D

 24 26  0  0  0  0  0  0  0  0999 V2000
    0.8313   -2.4994    0.8883 O   0  0  0  0  0  0  0  0  0  0  0  0
    0.7358   -1.4777    0.1335 C   0  0  0  0  0  0  0  0  0  0  0  0
   -0.3383   -0.6355   -0.2545 N   0  0  0  0  0  0  0  0  0  0  0  0
   -1.7316   -0.6398   -0.0246 C   0  0  0  0  0  0  0  0  0  0  0  0
   -2.2873    0.5463    0.4603 C   0  0  0  0  0  0  0  0  0  0  0  0
   -3.6371    0.6125    0.7115 C   0  0  0  0  0  0  0  0  0  0  0  0
   -4.4503   -0.4698    0.4939 C   0  0  0  0  0  0  0  0  0  0  0  0
   -5.7756   -0.4122    0.7411 F   0  0  0  0  0  0  0  0  0  0  0  0
   -3.9075   -1.6438    0.0152 C   0  0  0  0  0  0  0  0  0  0  0  0
   -4.9360   -3.0469   -0.2717 Cl  0  0  0  0  0  0  0  0  0  0  0  0
   -2.5527   -1.7004   -0.2338 C   0  0  0  0  0  0  0  0  0  0  0  0
    0.5311    0.2695   -0.9921 C   0  0  0  0  0  0  0  0  0  0  0  0
    0.5563    1.6417   -0.5206 C   0  0  0  0  0  0  0  0  0  0  0  0
    0.5461    2.6928   -1.4022 C   0  0  0  0  0  0  0  0  0  0  0  0
    0.5630    4.0181   -0.9603 C   0  0  0  0  0  0  0  0  0  0  0  0
    0.5901    4.2580    0.3747 C   0  0  0  0  0  0  0  0  0  0  0  0
    0.6005    3.2088    1.2514 C   0  0  0  0  0  0  0  0  0  0  0  0
    0.5833    1.9319    0.7859 N   0  0  0  0  0  0  0  0  0  0  0  0
    1.6353   -0.6598   -0.7020 C   0  0  0  0  0  0  0  0  0  0  0  0
    2.8449   -0.2039    0.0179 C   0  0  0  0  0  0  0  0  0  0  0  0
    3.5898   -1.4712    0.4662 C   0  0  0  0  0  0  0  0  0  0  0  0
    4.7944   -1.1305    1.1840 N   0  0  0  0  0  0  0  0  0  0  0  0
    5.5536   -2.6498    1.6364 Cl  0  0  0  0  0  0  0  0  0  0  0  0
    5.6608   -0.5389    0.3168 F   0  0  0  0  0  0  0  0  0  0  0  0
  1  2  2  0
  2  3  1  0
  3  4  1  0
  4  5  2  0
  5  6  1  0
  6  7  2  0
  7  8  1  0
  7  9  1  0
  9 10  1  0
  9 11  2  0
  3 12  1  0
 12 13  1  0
 13 14  2  0
 14 15  1  0
 15 16  2  0
 16 17  1  0
 17 18  2  0
 12 19  1  0
 19 20  1  0
 20 21  1  0
 21 22  1  0
 22 23  1  0
 22 24  1  0
 19  2  1  0
 11  4  1  0
 18 13  1  0
M  END
$$$$
