
     RDKit          3D

 29 32  0  0  0  0  0  0  0  0999 V2000
   -2.7320   -0.6529   -0.3264 O   0  0  0  0  0  0  0  0  0  0  0  0
   -2.0091   -1.5273    0.2612 C   0  0  0  0  0  0  0  0  0  0  0  0
   -2.4611   -2.1935    1.4258 N   0  0  0  0  0  0  0  0  0  0  0  0
   -3.7772   -1.8617    1.9584 C   0  0  0  0  0  0  0  0  0  0  0  0
   -4.9592   -2.7319    1.5672 C   0  0  0  0  0  0  0  0  0  0  0  0
   -4.7708   -1.4218    0.8511 C   0  0  0  0  0  0  0  0  0  0  0  0
   -5.6051   -0.2743    1.2477 C   0  0  0  0  0  0  0  0  0  0  0  0
   -6.8069   -0.4410    1.8129 C   0  0  0  0  0  0  0  0  0  0  0  0
   -7.6603    0.5292    2.2306 C   0  0  0  0  0  0  0  0  0  0  0  0
   -7.1592    1.8506    2.0122 C   0  0  0  0  0  0  0  0  0  0  0  0
   -5.9487    2.0819    1.4436 C   0  0  0  0  0  0  0  0  0  0  0  0
   -5.1317    1.0475    1.0425 C   0  0  0  0  0  0  0  0  0  0  0  0
   -0.7364   -1.7978   -0.3060 N   0  0  0  0  0  0  0  0  0  0  0  0
    0.0883   -2.7782    0.3336 C   0  0  0  0  0  0  0  0  0  0  0  0
    1.4927   -2.8454   -0.0878 C   0  0  0  0  0  0  0  0  0  0  0  0
    1.8640   -2.2228   -1.3829 C   0  0  0  0  0  0  0  0  0  0  0  0
    2.8014   -1.0786   -1.1849 C   0  0  0  0  0  0  0  0  0  0  0  0
    3.5300   -0.8688   -0.0930 N   0  0  0  0  0  0  0  0  0  0  0  0
    4.2699    0.2570   -0.2449 C   0  0  0  0  0  0  0  0  0  0  0  0
    5.2085    0.8029    0.7147 C   0  0  0  0  0  0  0  0  0  0  0  0
    5.9286    1.8258    0.5791 C   0  0  0  0  0  0  0  0  0  0  0  0
    5.9624    2.6864   -0.5858 C   0  0  0  0  0  0  0  0  0  0  0  0
    6.7897    3.6976   -0.5744 C   0  0  0  0  0  0  0  0  0  0  0  0
    7.0701    4.6208   -1.3698 C   0  0  0  0  0  0  0  0  0  0  0  0
    7.3729    5.5699   -2.2137 N   0  0  0  0  0  0  0  0  0  0  0  0
    3.9486    0.7234   -1.4903 N   0  0  0  0  0  0  0  0  0  0  0  0
    3.0896   -0.0970   -1.9896 O   0  0  0  0  0  0  0  0  0  0  0  0
    0.6907   -1.8400   -2.2408 C   0  0  0  0  0  0  0  0  0  0  0  0
   -0.3498   -1.0599   -1.4970 C   0  0  0  0  0  0  0  0  0  0  0  0
  1  2  2  0
  2  3  1  0
  3  4  1  0
  4  5  1  0
  5  6  1  0
  6  7  1  0
  7  8  2  0
  8  9  1  0
  9 10  2  0
 10 11  1  0
 11 12  2  0
  2 13  1  0
 13 14  1  0
 14 15  1  0
 15 16  1  0
 16 17  1  0
 17 18  2  0
 18 19  1  0
 19 20  1  0
 20 21  2  3
 21 22  1  0
 22 23  2  3
 23 24  1  0
 24 25  3  0
 19 26  2  0
 26 27  1  0
 16 28  1  0
 28 29  1  0
  6  4  1  0
 12  7  1  0
 29 13  1  0
 27 17  1  0
M  END
$$$$
