
     RDKit          3D

 19 21  0  0  0  0  0  0  0  0999 V2000
   -0.7785    3.3244    1.7601 O   0  0  0  0  0  0  0  0  0  0  0  0
   -0.7317    2.3095    1.0080 C   0  0  0  0  0  0  0  0  0  0  0  0
    0.5780    2.0675    0.4562 N   0  0  0  0  0  0  0  0  0  0  0  0
    1.2177    0.8498    0.0386 C   0  0  0  0  0  0  0  0  0  0  0  0
    2.5650    1.0018    0.2656 C   0  0  0  0  0  0  0  0  0  0  0  0
    3.4644   -0.0196   -0.0403 C   0  0  0  0  0  0  0  0  0  0  0  0
    5.1847    0.1567    0.2424 Cl  0  0  0  0  0  0  0  0  0  0  0  0
    2.9456   -1.1791   -0.5761 C   0  0  0  0  0  0  0  0  0  0  0  0
    1.5773   -1.3255   -0.8034 C   0  0  0  0  0  0  0  0  0  0  0  0
    1.0538   -2.4592   -1.3293 F   0  0  0  0  0  0  0  0  0  0  0  0
    0.6984   -0.3105   -0.4977 C   0  0  0  0  0  0  0  0  0  0  0  0
   -1.9634    1.6176    0.8578 N   0  0  0  0  0  0  0  0  0  0  0  0
   -2.2178    0.1703    0.7689 C   0  0  0  0  0  0  0  0  0  0  0  0
   -3.6207   -0.1805    1.1315 C   0  0  0  0  0  0  0  0  0  0  0  0
   -3.7680   -1.5735    0.5152 C   0  0  0  0  0  0  0  0  0  0  0  0
   -2.9833   -1.5036   -0.7918 C   0  0  0  0  0  0  0  0  0  0  0  0
   -2.0338   -0.3306   -0.6346 C   0  0  0  0  0  0  0  0  0  0  0  0
   -0.6435   -0.7731   -0.8506 C   0  0  0  0  0  0  0  0  0  0  0  0
   -0.5443   -1.8422   -1.5206 O   0  0  0  0  0  0  0  0  0  0  0  0
  1  2  2  0
  2  3  1  0
  3  4  1  0
  4  5  2  0
  5  6  1  0
  6  7  1  0
  6  8  2  0
  8  9  1  0
  9 10  1  0
  9 11  2  0
  2 12  1  0
 12 13  1  0
 13 14  1  0
 14 15  1  0
 15 16  1  0
 16 17  1  0
 17 18  1  0
 18 19  2  0
 11  4  1  0
 18 11  1  0
 17 13  1  0
M  END
$$$$
