
     RDKit          3D

 61 63  0  0  0  0  0  0  0  0999 V2000
   -4.2108    0.1956    3.1687 C   0  0  0  0  0  0  0  0  0  0  0  0
   -3.6872    1.3892    2.4298 C   0  0  0  0  0  0  0  0  0  0  0  0
   -4.2456    1.5010    1.0268 C   0  0  2  0  0  0  0  0  0  0  0  0
   -5.7294    1.6154    1.1221 C   0  0  0  0  0  0  0  0  0  0  0  0
   -3.7965    0.3210    0.2037 C   0  0  2  0  0  0  0  0  0  0  0  0
   -2.3490    0.2866    0.1365 N   0  0  0  0  0  0  0  0  0  0  0  0
   -1.5697   -0.7819    0.6820 C   0  0  0  0  0  0  0  0  0  0  0  0
   -2.1986   -1.7166    1.2376 O   0  0  0  0  0  0  0  0  0  0  0  0
   -0.1531   -0.8015    0.6080 N   0  0  0  0  0  0  0  0  0  0  0  0
    0.5648   -1.9194    1.1839 C   0  0  0  0  0  0  0  0  0  0  0  0
    1.7108   -2.2074    0.2165 C   0  0  0  0  0  0  0  0  0  0  0  0
    2.7309   -1.0832    0.2761 C   0  0  0  0  0  0  0  0  0  0  0  0
    2.0270    0.1919    0.5919 C   0  0  0  0  0  0  0  0  0  0  0  0
    0.6364    0.2338   -0.0129 C   0  0  0  0  0  0  0  0  0  0  0  0
    3.8199   -1.4792    1.2508 C   0  0  0  0  0  0  0  0  0  0  0  0
    4.7264   -1.6158    0.1478 N   0  0  0  0  0  0  0  0  0  0  0  0
    5.2214   -2.9328   -0.1146 C   0  0  0  0  0  0  0  0  0  0  0  0
    3.7546   -1.0979   -0.7966 C   0  0  0  0  0  0  0  0  0  0  0  0
    4.2303    0.1942   -1.3391 C   0  0  0  0  0  0  0  0  0  0  0  0
    4.8244    1.1839   -0.5908 C   0  0  0  0  0  0  0  0  0  0  0  0
    5.2622    2.3813   -1.1033 C   0  0  0  0  0  0  0  0  0  0  0  0
    5.1151    2.6397   -2.4326 C   0  0  0  0  0  0  0  0  0  0  0  0
    5.6597    4.1511   -3.1210 Cl  0  0  0  0  0  0  0  0  0  0  0  0
    4.5237    1.6805   -3.2363 C   0  0  0  0  0  0  0  0  0  0  0  0
    4.0933    0.4901   -2.7024 C   0  0  0  0  0  0  0  0  0  0  0  0
   -4.3942    0.2941   -1.1363 C   0  0  0  0  0  0  0  0  0  0  0  0
   -3.5990    0.2538   -2.1362 O   0  0  0  0  0  0  0  0  0  0  0  0
   -5.7246    0.3073   -1.4263 O   0  0  0  0  0  0  0  0  0  0  0  0
   -6.1893    0.2778   -2.7627 C   0  0  0  0  0  0  0  0  0  0  0  0
   -4.9063   -0.4317    2.5981 H   0  0  0  0  0  0  0  0  0  0  0  0
   -4.7852    0.5000    4.0923 H   0  0  0  0  0  0  0  0  0  0  0  0
   -3.3412   -0.3928    3.5571 H   0  0  0  0  0  0  0  0  0  0  0  0
   -2.5757    1.3993    2.4287 H   0  0  0  0  0  0  0  0  0  0  0  0
   -4.0624    2.3092    2.9682 H   0  0  0  0  0  0  0  0  0  0  0  0
   -3.8754    2.4663    0.6049 H   0  0  0  0  0  0  0  0  0  0  0  0
   -6.2299    0.7397    1.5835 H   0  0  0  0  0  0  0  0  0  0  0  0
   -5.9474    2.4718    1.8270 H   0  0  0  0  0  0  0  0  0  0  0  0
   -6.2201    1.9348    0.1659 H   0  0  0  0  0  0  0  0  0  0  0  0
   -4.1198   -0.5980    0.7318 H   0  0  0  0  0  0  0  0  0  0  0  0
   -1.7893    1.0514   -0.3209 H   0  0  0  0  0  0  0  0  0  0  0  0
   -0.0406   -2.8320    1.2802 H   0  0  0  0  0  0  0  0  0  0  0  0
    0.9510   -1.6770    2.1978 H   0  0  0  0  0  0  0  0  0  0  0  0
    1.2522   -2.1834   -0.8002 H   0  0  0  0  0  0  0  0  0  0  0  0
    2.1383   -3.1795    0.4898 H   0  0  0  0  0  0  0  0  0  0  0  0
    2.5710    1.0971    0.3226 H   0  0  0  0  0  0  0  0  0  0  0  0
    1.9225    0.2313    1.7150 H   0  0  0  0  0  0  0  0  0  0  0  0
    0.1776    1.2072    0.2435 H   0  0  0  0  0  0  0  0  0  0  0  0
    0.7081    0.0795   -1.0876 H   0  0  0  0  0  0  0  0  0  0  0  0
    4.1430   -0.6816    1.9389 H   0  0  0  0  0  0  0  0  0  0  0  0
    3.6367   -2.4346    1.8103 H   0  0  0  0  0  0  0  0  0  0  0  0
    4.8977   -3.3231   -1.1004 H   0  0  0  0  0  0  0  0  0  0  0  0
    6.3422   -2.8937   -0.0556 H   0  0  0  0  0  0  0  0  0  0  0  0
    4.9155   -3.5892    0.7336 H   0  0  0  0  0  0  0  0  0  0  0  0
    3.4815   -1.8171   -1.6028 H   0  0  0  0  0  0  0  0  0  0  0  0
    4.9592    1.0152    0.4673 H   0  0  0  0  0  0  0  0  0  0  0  0
    5.7237    3.1301   -0.4767 H   0  0  0  0  0  0  0  0  0  0  0  0
    4.4010    1.8773   -4.3019 H   0  0  0  0  0  0  0  0  0  0  0  0
    3.6246   -0.2812   -3.3130 H   0  0  0  0  0  0  0  0  0  0  0  0
   -5.5272    0.8416   -3.4482 H   0  0  0  0  0  0  0  0  0  0  0  0
   -7.1886    0.7670   -2.7783 H   0  0  0  0  0  0  0  0  0  0  0  0
   -6.2909   -0.7562   -3.1481 H   0  0  0  0  0  0  0  0  0  0  0  0
  1  2  1  0
  2  3  1  0
  3  4  1  0
  3  5  1  0
  5  6  1  0
  6  7  1  0
  7  8  2  0
  7  9  1  0
  9 10  1  0
 10 11  1  0
 11 12  1  0
 12 13  1  0
 13 14  1  0
 12 15  1  0
 15 16  1  0
 16 17  1  0
 16 18  1  0
 18 19  1  0
 19 20  2  0
 20 21  1  0
 21 22  2  0
 22 23  1  0
 22 24  1  0
 24 25  2  0
  5 26  1  0
 26 27  2  0
 26 28  1  0
 28 29  1  0
 14  9  1  0
 25 19  1  0
 18 12  1  0
  1 30  1  0
  1 31  1  0
  1 32  1  0
  2 33  1  0
  2 34  1  0
  3 35  1  6
  4 36  1  0
  4 37  1  0
  4 38  1  0
  5 39  1  1
  6 40  1  0
 10 41  1  0
 10 42  1  0
 11 43  1  0
 11 44  1  0
 13 45  1  0
 13 46  1  0
 14 47  1  0
 14 48  1  0
 15 49  1  0
 15 50  1  0
 17 51  1  0
 17 52  1  0
 17 53  1  0
 18 54  1  0
 20 55  1  0
 21 56  1  0
 24 57  1  0
 25 58  1  0
 29 59  1  0
 29 60  1  0
 29 61  1  0
M  END
$$$$
