
     RDKit          3D

 67 69  0  0  0  0  0  0  0  0999 V2000
    6.2502    0.3515   -2.7788 C   0  0  0  0  0  0  0  0  0  0  0  0
    5.1666    0.5050   -1.7276 C   0  0  0  0  0  0  0  0  0  0  0  0
    5.1332   -0.6640   -0.7791 C   0  0  2  0  0  0  0  0  0  0  0  0
    4.8679   -1.9658   -1.4806 C   0  0  0  0  0  0  0  0  0  0  0  0
    4.3121   -0.5135    0.4155 C   0  0  2  0  0  0  0  0  0  0  0  0
    2.9113   -0.2751    0.2762 N   0  0  0  0  0  0  0  0  0  0  0  0
    1.8858   -1.0695    0.7905 C   0  0  0  0  0  0  0  0  0  0  0  0
    2.2971   -2.0810    1.4267 O   0  0  0  0  0  0  0  0  0  0  0  0
    0.4939   -0.7978    0.6331 N   0  0  0  0  0  0  0  0  0  0  0  0
   -0.4290   -1.7479    1.2297 C   0  0  0  0  0  0  0  0  0  0  0  0
   -1.6938   -1.1099    1.7471 C   0  0  0  0  0  0  0  0  0  0  0  0
   -2.1818   -0.1725    0.6638 C   0  0  0  0  0  0  0  0  0  0  0  0
   -1.2034    0.9433    0.5585 C   0  0  0  0  0  0  0  0  0  0  0  0
    0.0744    0.3697   -0.0898 C   0  0  0  0  0  0  0  0  0  0  0  0
   -2.4285   -0.8695   -0.6387 C   0  0  0  0  0  0  0  0  0  0  0  0
   -3.8121   -0.7532   -0.4648 N   0  0  0  0  0  0  0  0  0  0  0  0
   -4.6073   -1.9227   -0.2714 C   0  0  0  0  0  0  0  0  0  0  0  0
   -4.6224   -2.8799   -1.3963 C   0  0  0  0  0  0  0  0  0  0  0  0
   -6.0094   -1.4942    0.0938 C   0  0  0  0  0  0  0  0  0  0  0  0
   -3.6428    0.1182    0.6763 C   0  0  0  0  0  0  0  0  0  0  0  0
   -4.0421    1.5104    0.3309 C   0  0  0  0  0  0  0  0  0  0  0  0
   -4.9536    1.7690   -0.6915 C   0  0  0  0  0  0  0  0  0  0  0  0
   -5.3711    3.0428   -1.0172 C   0  0  0  0  0  0  0  0  0  0  0  0
   -4.8770    4.0983   -0.3155 C   0  0  0  0  0  0  0  0  0  0  0  0
   -5.4211    5.7131   -0.7464 Cl  0  0  0  0  0  0  0  0  0  0  0  0
   -3.9725    3.9049    0.7069 C   0  0  0  0  0  0  0  0  0  0  0  0
   -3.5818    2.6226    1.0009 C   0  0  0  0  0  0  0  0  0  0  0  0
    4.8282    0.5298    1.3711 C   0  0  0  0  0  0  0  0  0  0  0  0
    4.1151    1.3934    1.8922 O   0  0  0  0  0  0  0  0  0  0  0  0
    6.1817    0.5264    1.6891 O   0  0  0  0  0  0  0  0  0  0  0  0
    6.7392    1.4868    2.5887 C   0  0  0  0  0  0  0  0  0  0  0  0
    6.1293   -0.6528   -3.2387 H   0  0  0  0  0  0  0  0  0  0  0  0
    6.1233    1.1335   -3.5382 H   0  0  0  0  0  0  0  0  0  0  0  0
    7.2642    0.3547   -2.3209 H   0  0  0  0  0  0  0  0  0  0  0  0
    5.3153    1.4684   -1.2562 H   0  0  0  0  0  0  0  0  0  0  0  0
    4.1977    0.4659   -2.3084 H   0  0  0  0  0  0  0  0  0  0  0  0
    6.2060   -0.7432   -0.4114 H   0  0  0  0  0  0  0  0  0  0  0  0
    4.5345   -2.7662   -0.7901 H   0  0  0  0  0  0  0  0  0  0  0  0
    4.1330   -1.8337   -2.3288 H   0  0  0  0  0  0  0  0  0  0  0  0
    5.7820   -2.3752   -1.9818 H   0  0  0  0  0  0  0  0  0  0  0  0
    4.3905   -1.4612    0.9983 H   0  0  0  0  0  0  0  0  0  0  0  0
    2.6751    0.5806   -0.2703 H   0  0  0  0  0  0  0  0  0  0  0  0
   -0.6216   -2.6192    0.5664 H   0  0  0  0  0  0  0  0  0  0  0  0
    0.0729   -2.1940    2.1346 H   0  0  0  0  0  0  0  0  0  0  0  0
   -1.4150   -0.5009    2.6412 H   0  0  0  0  0  0  0  0  0  0  0  0
   -2.4005   -1.8793    2.0345 H   0  0  0  0  0  0  0  0  0  0  0  0
   -1.5739    1.7713   -0.0530 H   0  0  0  0  0  0  0  0  0  0  0  0
   -0.8717    1.2775    1.5694 H   0  0  0  0  0  0  0  0  0  0  0  0
   -0.1328    0.1410   -1.1360 H   0  0  0  0  0  0  0  0  0  0  0  0
    0.8180    1.1936   -0.0296 H   0  0  0  0  0  0  0  0  0  0  0  0
   -1.9638   -1.8480   -0.7575 H   0  0  0  0  0  0  0  0  0  0  0  0
   -2.0929   -0.2079   -1.4908 H   0  0  0  0  0  0  0  0  0  0  0  0
   -4.2307   -2.4727    0.6401 H   0  0  0  0  0  0  0  0  0  0  0  0
   -5.5610   -3.5031   -1.3023 H   0  0  0  0  0  0  0  0  0  0  0  0
   -4.6702   -2.4293   -2.4045 H   0  0  0  0  0  0  0  0  0  0  0  0
   -3.7871   -3.6089   -1.2857 H   0  0  0  0  0  0  0  0  0  0  0  0
   -6.6146   -2.3746    0.4597 H   0  0  0  0  0  0  0  0  0  0  0  0
   -6.0276   -0.6761    0.8344 H   0  0  0  0  0  0  0  0  0  0  0  0
   -6.5791   -1.1189   -0.7954 H   0  0  0  0  0  0  0  0  0  0  0  0
   -4.1882   -0.2167    1.5919 H   0  0  0  0  0  0  0  0  0  0  0  0
   -5.3385    0.9350   -1.2476 H   0  0  0  0  0  0  0  0  0  0  0  0
   -6.0890    3.2223   -1.8252 H   0  0  0  0  0  0  0  0  0  0  0  0
   -3.6040    4.7765    1.2408 H   0  0  0  0  0  0  0  0  0  0  0  0
   -2.8734    2.4781    1.8185 H   0  0  0  0  0  0  0  0  0  0  0  0
    6.0737    2.3568    2.6874 H   0  0  0  0  0  0  0  0  0  0  0  0
    7.7618    1.7808    2.2797 H   0  0  0  0  0  0  0  0  0  0  0  0
    6.7513    0.9776    3.5823 H   0  0  0  0  0  0  0  0  0  0  0  0
  1  2  1  0
  2  3  1  0
  3  4  1  0
  3  5  1  0
  5  6  1  0
  6  7  1  0
  7  8  2  0
  7  9  1  0
  9 10  1  0
 10 11  1  0
 11 12  1  0
 12 13  1  0
 13 14  1  0
 12 15  1  0
 15 16  1  0
 16 17  1  0
 17 18  1  0
 17 19  1  0
 16 20  1  0
 20 21  1  0
 21 22  2  0
 22 23  1  0
 23 24  2  0
 24 25  1  0
 24 26  1  0
 26 27  2  0
  5 28  1  0
 28 29  2  0
 28 30  1  0
 30 31  1  0
 14  9  1  0
 27 21  1  0
 20 12  1  0
  1 32  1  0
  1 33  1  0
  1 34  1  0
  2 35  1  0
  2 36  1  0
  3 37  1  1
  4 38  1  0
  4 39  1  0
  4 40  1  0
  5 41  1  1
  6 42  1  0
 10 43  1  0
 10 44  1  0
 11 45  1  0
 11 46  1  0
 13 47  1  0
 13 48  1  0
 14 49  1  0
 14 50  1  0
 15 51  1  0
 15 52  1  0
 17 53  1  0
 18 54  1  0
 18 55  1  0
 18 56  1  0
 19 57  1  0
 19 58  1  0
 19 59  1  0
 20 60  1  0
 22 61  1  0
 23 62  1  0
 26 63  1  0
 27 64  1  0
 31 65  1  0
 31 66  1  0
 31 67  1  0
M  END
$$$$
