
     RDKit          3D

 75 78  0  0  0  0  0  0  0  0999 V2000
   -3.6665   -2.7622    2.9841 C   0  0  0  0  0  0  0  0  0  0  0  0
   -2.9603   -1.6898    2.2228 C   0  0  0  0  0  0  0  0  0  0  0  0
   -3.5190   -1.1369    1.1670 C   0  0  0  0  0  0  0  0  0  0  0  0
   -4.8310   -1.5631    0.7269 C   0  0  0  0  0  0  0  0  0  0  0  0
   -5.4466   -2.4580    1.3441 O   0  0  0  0  0  0  0  0  0  0  0  0
   -5.4965   -1.0398   -0.3730 O   0  0  0  0  0  0  0  0  0  0  0  0
   -6.7583   -1.4367   -0.8116 C   0  0  0  0  0  0  0  0  0  0  0  0
   -6.7906   -1.8582   -2.2598 C   0  0  0  0  0  0  0  0  0  0  0  0
   -7.6913   -0.2275   -0.7008 C   0  0  0  0  0  0  0  0  0  0  0  0
   -2.8517   -0.0483    0.3696 C   0  0  0  0  0  0  0  0  0  0  0  0
   -3.6905    1.1916    0.5351 C   0  0  0  0  0  0  0  0  0  0  0  0
   -4.4434    1.7012   -0.4873 C   0  0  0  0  0  0  0  0  0  0  0  0
   -5.1830    2.8396   -0.2222 C   0  0  0  0  0  0  0  0  0  0  0  0
   -5.1641    3.4382    1.0198 C   0  0  0  0  0  0  0  0  0  0  0  0
   -4.4066    2.9271    2.0509 C   0  0  0  0  0  0  0  0  0  0  0  0
   -4.4036    3.7098    3.6155 Cl  0  0  0  0  0  0  0  0  0  0  0  0
   -3.6601    1.7824    1.7922 C   0  0  0  0  0  0  0  0  0  0  0  0
   -1.5501    0.2885    0.8666 N   0  0  0  0  0  0  0  0  0  0  0  0
   -0.7785    1.3014    0.1779 C   0  0  0  0  0  0  0  0  0  0  0  0
    0.0583    0.6331   -0.8876 C   0  0  0  0  0  0  0  0  0  0  0  0
    0.8696    1.6814   -1.6138 C   0  0  0  0  0  0  0  0  0  0  0  0
    1.6653    1.0641   -2.6176 N   0  0  0  0  0  0  0  0  0  0  0  0
    0.9518    0.9821   -3.9530 C   0  0  0  0  0  0  0  0  0  0  0  0
    2.9264    0.5394   -2.5868 C   0  0  0  0  0  0  0  0  0  0  0  0
    3.3657    0.0668   -3.7373 O   0  0  0  0  0  0  0  0  0  0  0  0
    3.8781    0.4052   -1.5200 C   0  0  0  0  0  0  0  0  0  0  0  0
    5.1797   -0.0714   -1.7880 C   0  0  0  0  0  0  0  0  0  0  0  0
    6.1189   -0.2439   -0.8052 C   0  0  0  0  0  0  0  0  0  0  0  0
    5.7924    0.0558    0.4977 C   0  0  0  0  0  0  0  0  0  0  0  0
    6.7761   -0.1303    1.4875 O   0  0  0  0  0  0  0  0  0  0  0  0
    8.0298   -0.5990    1.1615 C   0  0  0  0  0  0  0  0  0  0  0  0
    8.2738   -1.9439    1.1611 C   0  0  0  0  0  0  0  0  0  0  0  0
    9.5221   -2.4441    0.8382 C   0  0  0  0  0  0  0  0  0  0  0  0
   10.5277   -1.5745    0.5142 C   0  0  0  0  0  0  0  0  0  0  0  0
   10.3220   -0.2232    0.5035 C   0  0  0  0  0  0  0  0  0  0  0  0
    9.0503    0.2645    0.8335 C   0  0  0  0  0  0  0  0  0  0  0  0
    4.5544    0.5111    0.7687 C   0  0  0  0  0  0  0  0  0  0  0  0
    3.5899    0.6909   -0.2195 C   0  0  0  0  0  0  0  0  0  0  0  0
   -0.9643   -0.3150    2.0037 C   0  0  0  0  0  0  0  0  0  0  0  0
    0.1938    0.0383    2.4071 O   0  0  0  0  0  0  0  0  0  0  0  0
   -1.6714   -1.3152    2.6933 N   0  0  0  0  0  0  0  0  0  0  0  0
   -3.8094   -3.6895    2.3951 H   0  0  0  0  0  0  0  0  0  0  0  0
   -4.5907   -2.3922    3.4803 H   0  0  0  0  0  0  0  0  0  0  0  0
   -3.0245   -3.0999    3.8533 H   0  0  0  0  0  0  0  0  0  0  0  0
   -7.2227   -2.2355   -0.1990 H   0  0  0  0  0  0  0  0  0  0  0  0
   -6.6534   -1.0014   -2.9537 H   0  0  0  0  0  0  0  0  0  0  0  0
   -6.0366   -2.6071   -2.5177 H   0  0  0  0  0  0  0  0  0  0  0  0
   -7.8166   -2.2478   -2.4631 H   0  0  0  0  0  0  0  0  0  0  0  0
   -7.5339    0.4805   -1.5422 H   0  0  0  0  0  0  0  0  0  0  0  0
   -7.5231    0.3152    0.2498 H   0  0  0  0  0  0  0  0  0  0  0  0
   -8.7191   -0.6123   -0.8039 H   0  0  0  0  0  0  0  0  0  0  0  0
   -2.8271   -0.3205   -0.7140 H   0  0  0  0  0  0  0  0  0  0  0  0
   -4.4313    1.2128   -1.4477 H   0  0  0  0  0  0  0  0  0  0  0  0
   -5.7744    3.2257   -1.0526 H   0  0  0  0  0  0  0  0  0  0  0  0
   -5.7650    4.3226    1.1548 H   0  0  0  0  0  0  0  0  0  0  0  0
   -3.0738    1.3959    2.6084 H   0  0  0  0  0  0  0  0  0  0  0  0
   -1.4842    1.9701   -0.3457 H   0  0  0  0  0  0  0  0  0  0  0  0
   -0.1423    1.8856    0.8772 H   0  0  0  0  0  0  0  0  0  0  0  0
   -0.6841    0.1795   -1.6081 H   0  0  0  0  0  0  0  0  0  0  0  0
    0.6803   -0.1837   -0.5111 H   0  0  0  0  0  0  0  0  0  0  0  0
    0.0683    2.3431   -2.1202 H   0  0  0  0  0  0  0  0  0  0  0  0
    1.3388    2.3698   -0.9267 H   0  0  0  0  0  0  0  0  0  0  0  0
   -0.1136    0.7703   -3.7751 H   0  0  0  0  0  0  0  0  0  0  0  0
    1.0903    1.9141   -4.5022 H   0  0  0  0  0  0  0  0  0  0  0  0
    1.3821    0.1501   -4.5434 H   0  0  0  0  0  0  0  0  0  0  0  0
    5.4394   -0.3046   -2.7978 H   0  0  0  0  0  0  0  0  0  0  0  0
    7.1327   -0.6187   -1.0399 H   0  0  0  0  0  0  0  0  0  0  0  0
    7.4954   -2.6500    1.4135 H   0  0  0  0  0  0  0  0  0  0  0  0
    9.7464   -3.5007    0.8289 H   0  0  0  0  0  0  0  0  0  0  0  0
   11.5242   -1.9380    0.2545 H   0  0  0  0  0  0  0  0  0  0  0  0
   11.0837    0.4979    0.2549 H   0  0  0  0  0  0  0  0  0  0  0  0
    8.8321    1.3243    0.8410 H   0  0  0  0  0  0  0  0  0  0  0  0
    4.3073    0.7455    1.8080 H   0  0  0  0  0  0  0  0  0  0  0  0
    2.6287    1.0439    0.1041 H   0  0  0  0  0  0  0  0  0  0  0  0
   -1.2425   -1.7768    3.5489 H   0  0  0  0  0  0  0  0  0  0  0  0
  1  2  1  0
  2  3  2  0
  3  4  1  0
  4  5  2  0
  4  6  1  0
  6  7  1  0
  7  8  1  0
  7  9  1  0
  3 10  1  0
 10 11  1  0
 11 12  2  0
 12 13  1  0
 13 14  2  0
 14 15  1  0
 15 16  1  0
 15 17  2  0
 10 18  1  0
 18 19  1  0
 19 20  1  0
 20 21  1  0
 21 22  1  0
 22 23  1  0
 22 24  1  0
 24 25  2  0
 24 26  1  0
 26 27  2  0
 27 28  1  0
 28 29  2  0
 29 30  1  0
 30 31  1  0
 31 32  2  0
 32 33  1  0
 33 34  2  0
 34 35  1  0
 35 36  2  0
 29 37  1  0
 37 38  2  0
 18 39  1  0
 39 40  2  0
 39 41  1  0
 41  2  1  0
 17 11  1  0
 38 26  1  0
 36 31  1  0
  1 42  1  0
  1 43  1  0
  1 44  1  0
  7 45  1  0
  8 46  1  0
  8 47  1  0
  8 48  1  0
  9 49  1  0
  9 50  1  0
  9 51  1  0
 10 52  1  0
 12 53  1  0
 13 54  1  0
 14 55  1  0
 17 56  1  0
 19 57  1  0
 19 58  1  0
 20 59  1  0
 20 60  1  0
 21 61  1  0
 21 62  1  0
 23 63  1  0
 23 64  1  0
 23 65  1  0
 27 66  1  0
 28 67  1  0
 32 68  1  0
 33 69  1  0
 34 70  1  0
 35 71  1  0
 36 72  1  0
 37 73  1  0
 38 74  1  0
 41 75  1  0
M  END
$$$$
