
     RDKit          3D

 57 62  0  0  0  0  0  0  0  0999 V2000
   -1.6986    0.2983    2.1514 O   0  0  0  0  0  0  0  0  0  0  0  0
   -1.9456    0.1990    0.9411 C   0  0  0  0  0  0  0  0  0  0  0  0
   -2.9469    0.6128    0.0516 N   0  0  0  0  0  0  0  0  0  0  0  0
   -3.8301    1.7329   -0.0607 C   0  0  0  0  0  0  0  0  0  0  0  0
   -4.6372    1.9094   -1.1637 C   0  0  0  0  0  0  0  0  0  0  0  0
   -5.4978    2.9834   -1.3005 C   0  0  0  0  0  0  0  0  0  0  0  0
   -5.5239    3.9058   -0.2595 C   0  0  0  0  0  0  0  0  0  0  0  0
   -6.3366    4.9827   -0.3148 F   0  0  0  0  0  0  0  0  0  0  0  0
   -4.7080    3.7229    0.8505 C   0  0  0  0  0  0  0  0  0  0  0  0
   -4.7828    4.9285    2.1407 Cl  0  0  0  0  0  0  0  0  0  0  0  0
   -3.8631    2.6549    0.9677 C   0  0  0  0  0  0  0  0  0  0  0  0
   -2.6875   -0.5984   -0.7094 C   0  0  0  0  0  0  0  0  0  0  0  0
   -3.4291   -1.7345   -0.1591 C   0  0  0  0  0  0  0  0  0  0  0  0
   -4.7269   -1.5420    0.2640 C   0  0  0  0  0  0  0  0  0  0  0  0
   -5.5046   -2.5556    0.7882 C   0  0  0  0  0  0  0  0  0  0  0  0
   -4.9761   -3.8069    0.8975 C   0  0  0  0  0  0  0  0  0  0  0  0
   -3.6780   -3.9901    0.4724 C   0  0  0  0  0  0  0  0  0  0  0  0
   -2.9480   -2.9845   -0.0330 N   0  0  0  0  0  0  0  0  0  0  0  0
   -1.2693   -0.4384   -0.2180 C   0  0  0  0  0  0  0  0  0  0  0  0
   -0.5059    0.5185   -1.0740 C   0  0  0  0  0  0  0  0  0  0  0  0
    0.8072    0.8730   -0.4457 C   0  0  0  0  0  0  0  0  0  0  0  0
    1.4911   -0.3273   -0.0264 N   0  0  0  0  0  0  0  0  0  0  0  0
    2.9260   -0.2500    0.0485 C   0  0  0  0  0  0  0  0  0  0  0  0
    3.7244   -1.2853    0.4129 N   0  0  0  0  0  0  0  0  0  0  0  0
    5.0136   -0.9126    0.3897 C   0  0  0  0  0  0  0  0  0  0  0  0
    6.1984   -1.5508    0.6615 C   0  0  0  0  0  0  0  0  0  0  0  0
    7.4071   -0.8978    0.5492 C   0  0  0  0  0  0  0  0  0  0  0  0
    8.5482   -1.5618    0.8264 F   0  0  0  0  0  0  0  0  0  0  0  0
    7.4607    0.4335    0.1551 C   0  0  0  0  0  0  0  0  0  0  0  0
    8.7709    1.1142    0.0372 C   0  0  0  0  0  0  0  0  0  0  0  0
    9.5270    0.4363   -0.9143 F   0  0  0  0  0  0  0  0  0  0  0  0
    8.6303    2.4067   -0.3485 F   0  0  0  0  0  0  0  0  0  0  0  0
    9.4773    1.0272    1.2459 F   0  0  0  0  0  0  0  0  0  0  0  0
    6.2531    1.0366   -0.1081 C   0  0  0  0  0  0  0  0  0  0  0  0
    5.0341    0.4011   -0.0017 C   0  0  0  0  0  0  0  0  0  0  0  0
    3.7384    0.7851   -0.2053 N   0  0  0  0  0  0  0  0  0  0  0  0
    0.8886   -1.5711    0.3231 C   0  0  0  0  0  0  0  0  0  0  0  0
   -0.5620   -1.7103    0.0610 C   0  0  0  0  0  0  0  0  0  0  0  0
   -4.5923    1.1672   -1.9589 H   0  0  0  0  0  0  0  0  0  0  0  0
   -6.1377    3.1473   -2.1450 H   0  0  0  0  0  0  0  0  0  0  0  0
   -3.2299    2.5083    1.8205 H   0  0  0  0  0  0  0  0  0  0  0  0
   -2.8013   -0.4844   -1.8011 H   0  0  0  0  0  0  0  0  0  0  0  0
   -5.1551   -0.5635    0.1847 H   0  0  0  0  0  0  0  0  0  0  0  0
   -6.5106   -2.3229    1.0963 H   0  0  0  0  0  0  0  0  0  0  0  0
   -5.5688   -4.6224    1.3063 H   0  0  0  0  0  0  0  0  0  0  0  0
   -3.2724   -5.0025    0.5679 H   0  0  0  0  0  0  0  0  0  0  0  0
   -0.3145    0.1240   -2.0923 H   0  0  0  0  0  0  0  0  0  0  0  0
   -1.1371    1.4275   -1.2006 H   0  0  0  0  0  0  0  0  0  0  0  0
    0.6918    1.6197    0.3579 H   0  0  0  0  0  0  0  0  0  0  0  0
    1.4200    1.3729   -1.2419 H   0  0  0  0  0  0  0  0  0  0  0  0
    6.2082   -2.6069    0.9798 H   0  0  0  0  0  0  0  0  0  0  0  0
    6.2733    2.0741   -0.4183 H   0  0  0  0  0  0  0  0  0  0  0  0
    3.4449    1.7290   -0.5072 H   0  0  0  0  0  0  0  0  0  0  0  0
    1.4350   -2.3654   -0.2702 H   0  0  0  0  0  0  0  0  0  0  0  0
    1.1736   -1.8093    1.3829 H   0  0  0  0  0  0  0  0  0  0  0  0
   -1.0134   -2.1398    1.0040 H   0  0  0  0  0  0  0  0  0  0  0  0
   -0.7523   -2.4982   -0.7206 H   0  0  0  0  0  0  0  0  0  0  0  0
  1  2  2  0
  2  3  1  0
  3  4  1  0
  4  5  2  0
  5  6  1  0
  6  7  2  0
  7  8  1  0
  7  9  1  0
  9 10  1  0
  9 11  2  0
  3 12  1  0
 12 13  1  0
 13 14  2  0
 14 15  1  0
 15 16  2  0
 16 17  1  0
 17 18  2  0
 12 19  1  0
 19 20  1  0
 20 21  1  0
 21 22  1  0
 22 23  1  0
 23 24  2  0
 24 25  1  0
 25 26  2  0
 26 27  1  0
 27 28  1  0
 27 29  2  0
 29 30  1  0
 30 31  1  0
 30 32  1  0
 30 33  1  0
 29 34  1  0
 34 35  2  0
 35 36  1  0
 22 37  1  0
 37 38  1  0
 19  2  1  0
 36 23  1  0
 11  4  1  0
 18 13  1  0
 38 19  1  0
 35 25  1  0
  5 39  1  0
  6 40  1  0
 11 41  1  0
 12 42  1  0
 14 43  1  0
 15 44  1  0
 16 45  1  0
 17 46  1  0
 20 47  1  0
 20 48  1  0
 21 49  1  0
 21 50  1  0
 26 51  1  0
 34 52  1  0
 36 53  1  0
 37 54  1  0
 37 55  1  0
 38 56  1  0
 38 57  1  0
M  END
$$$$
