
     RDKit          3D

 67 70  0  0  0  0  0  0  0  0999 V2000
    7.5690    1.9863   -0.1252 C   0  0  0  0  0  0  0  0  0  0  0  0
    6.8253    0.7117   -0.5185 C   0  0  0  0  0  0  0  0  0  0  0  0
    5.4077    0.8421   -0.0229 C   0  0  2  0  0  0  0  0  0  0  0  0
    5.4069    1.0012    1.4665 C   0  0  0  0  0  0  0  0  0  0  0  0
    4.5133   -0.2355   -0.5463 C   0  0  2  0  0  0  0  0  0  0  0  0
    3.1505   -0.0589   -0.0333 N   0  0  0  0  0  0  0  0  0  0  0  0
    2.0688    0.3372   -0.8501 C   0  0  0  0  0  0  0  0  0  0  0  0
    2.3893    0.5345   -2.0826 O   0  0  0  0  0  0  0  0  0  0  0  0
    0.7315    0.5206   -0.4256 N   0  0  0  0  0  0  0  0  0  0  0  0
   -0.2502    0.9580   -1.3993 C   0  0  0  0  0  0  0  0  0  0  0  0
   -1.4482    1.4488   -0.5889 C   0  0  0  0  0  0  0  0  0  0  0  0
   -2.0206    0.2495    0.0896 C   0  0  0  0  0  0  0  0  0  0  0  0
   -1.0292   -0.2365    1.1158 C   0  0  0  0  0  0  0  0  0  0  0  0
    0.3716    0.2684    0.9249 C   0  0  0  0  0  0  0  0  0  0  0  0
   -2.4704   -0.8446   -0.7675 C   0  0  0  0  0  0  0  0  0  0  0  0
   -2.0994   -1.5180   -1.7687 O   0  0  0  0  0  0  0  0  0  0  0  0
   -3.6614   -0.9431   -0.0038 N   0  0  0  0  0  0  0  0  0  0  0  0
   -4.7105   -1.9107    0.1268 C   0  0  0  0  0  0  0  0  0  0  0  0
   -4.4707   -3.1496    0.6637 C   0  0  0  0  0  0  0  0  0  0  0  0
   -5.4714   -4.0981    0.8002 C   0  0  0  0  0  0  0  0  0  0  0  0
   -6.7425   -3.7724    0.3788 C   0  0  0  0  0  0  0  0  0  0  0  0
   -6.9838   -2.5166   -0.1652 C   0  0  0  0  0  0  0  0  0  0  0  0
   -8.2316   -2.2036   -0.5773 F   0  0  0  0  0  0  0  0  0  0  0  0
   -5.9766   -1.5871   -0.2929 C   0  0  0  0  0  0  0  0  0  0  0  0
   -3.4013    0.3345    0.6075 C   0  0  0  0  0  0  0  0  0  0  0  0
   -4.2520    1.4385    0.1787 C   0  0  0  0  0  0  0  0  0  0  0  0
   -4.5519    1.6914   -1.1391 C   0  0  0  0  0  0  0  0  0  0  0  0
   -5.3633    2.7568   -1.4620 C   0  0  0  0  0  0  0  0  0  0  0  0
   -5.8805    3.5762   -0.4814 C   0  0  0  0  0  0  0  0  0  0  0  0
   -6.9133    4.9327   -0.8858 Cl  0  0  0  0  0  0  0  0  0  0  0  0
   -5.5921    3.3422    0.8616 C   0  0  0  0  0  0  0  0  0  0  0  0
   -4.7880    2.2795    1.1295 C   0  0  0  0  0  0  0  0  0  0  0  0
    4.9485   -1.6040   -0.2777 C   0  0  0  0  0  0  0  0  0  0  0  0
    4.2595   -2.4803    0.3007 O   0  0  0  0  0  0  0  0  0  0  0  0
    6.2337   -1.9953   -0.6887 O   0  0  0  0  0  0  0  0  0  0  0  0
    6.6697   -3.3298   -0.4308 C   0  0  0  0  0  0  0  0  0  0  0  0
    7.8391    1.9719    0.9511 H   0  0  0  0  0  0  0  0  0  0  0  0
    8.4932    2.1047   -0.7400 H   0  0  0  0  0  0  0  0  0  0  0  0
    6.9139    2.8599   -0.3500 H   0  0  0  0  0  0  0  0  0  0  0  0
    7.3773   -0.1017    0.0396 H   0  0  0  0  0  0  0  0  0  0  0  0
    6.8934    0.5673   -1.6064 H   0  0  0  0  0  0  0  0  0  0  0  0
    5.0274    1.8052   -0.4818 H   0  0  0  0  0  0  0  0  0  0  0  0
    5.1258    2.0580    1.7530 H   0  0  0  0  0  0  0  0  0  0  0  0
    6.4404    0.7895    1.8603 H   0  0  0  0  0  0  0  0  0  0  0  0
    4.6843    0.3129    1.9492 H   0  0  0  0  0  0  0  0  0  0  0  0
    4.4598   -0.0767   -1.6638 H   0  0  0  0  0  0  0  0  0  0  0  0
    2.9822   -0.2328    0.9812 H   0  0  0  0  0  0  0  0  0  0  0  0
   -0.4947    0.1300   -2.0723 H   0  0  0  0  0  0  0  0  0  0  0  0
    0.1444    1.7772   -2.0421 H   0  0  0  0  0  0  0  0  0  0  0  0
   -1.0136    2.1054    0.1975 H   0  0  0  0  0  0  0  0  0  0  0  0
   -2.1263    2.0569   -1.1770 H   0  0  0  0  0  0  0  0  0  0  0  0
   -1.3872    0.1764    2.0986 H   0  0  0  0  0  0  0  0  0  0  0  0
   -1.0391   -1.3375    1.2253 H   0  0  0  0  0  0  0  0  0  0  0  0
    0.5805    1.1875    1.5279 H   0  0  0  0  0  0  0  0  0  0  0  0
    1.0410   -0.5167    1.3373 H   0  0  0  0  0  0  0  0  0  0  0  0
   -3.4924   -3.4449    1.0053 H   0  0  0  0  0  0  0  0  0  0  0  0
   -5.3017   -5.0901    1.2248 H   0  0  0  0  0  0  0  0  0  0  0  0
   -7.5453   -4.4902    0.4718 H   0  0  0  0  0  0  0  0  0  0  0  0
   -6.2183   -0.6300   -0.7215 H   0  0  0  0  0  0  0  0  0  0  0  0
   -3.4152    0.2038    1.7191 H   0  0  0  0  0  0  0  0  0  0  0  0
   -4.1642    1.0662   -1.9486 H   0  0  0  0  0  0  0  0  0  0  0  0
   -5.6139    2.9758   -2.4935 H   0  0  0  0  0  0  0  0  0  0  0  0
   -6.0114    4.0023    1.6207 H   0  0  0  0  0  0  0  0  0  0  0  0
   -4.5626    2.0982    2.1928 H   0  0  0  0  0  0  0  0  0  0  0  0
    7.3134   -3.6809   -1.2434 H   0  0  0  0  0  0  0  0  0  0  0  0
    7.1030   -3.4178    0.5792 H   0  0  0  0  0  0  0  0  0  0  0  0
    5.7306   -3.9556   -0.4489 H   0  0  0  0  0  0  0  0  0  0  0  0
  1  2  1  0
  2  3  1  0
  3  4  1  0
  3  5  1  0
  5  6  1  0
  6  7  1  0
  7  8  2  0
  7  9  1  0
  9 10  1  0
 10 11  1  0
 11 12  1  0
 12 13  1  0
 13 14  1  0
 12 15  1  0
 15 16  2  0
 15 17  1  0
 17 18  1  0
 18 19  2  0
 19 20  1  0
 20 21  2  0
 21 22  1  0
 22 23  1  0
 22 24  2  0
 17 25  1  0
 25 26  1  0
 26 27  2  0
 27 28  1  0
 28 29  2  0
 29 30  1  0
 29 31  1  0
 31 32  2  0
  5 33  1  0
 33 34  2  0
 33 35  1  0
 35 36  1  0
 14  9  1  0
 24 18  1  0
 32 26  1  0
 25 12  1  0
  1 37  1  0
  1 38  1  0
  1 39  1  0
  2 40  1  0
  2 41  1  0
  3 42  1  6
  4 43  1  0
  4 44  1  0
  4 45  1  0
  5 46  1  6
  6 47  1  0
 10 48  1  0
 10 49  1  0
 11 50  1  0
 11 51  1  0
 13 52  1  0
 13 53  1  0
 14 54  1  0
 14 55  1  0
 19 56  1  0
 20 57  1  0
 21 58  1  0
 24 59  1  0
 25 60  1  0
 27 61  1  0
 28 62  1  0
 31 63  1  0
 32 64  1  0
 36 65  1  0
 36 66  1  0
 36 67  1  0
M  END
$$$$
