
     RDKit          3D

 49 52  0  0  0  0  0  0  0  0999 V2000
   -4.0168   -2.3072    1.9905 C   0  0  0  0  0  0  0  0  0  0  0  0
   -3.1126   -1.4332    1.2696 N   0  0  0  0  0  0  0  0  0  0  0  0
   -1.9429   -1.6364    0.5009 C   0  0  0  0  0  0  0  0  0  0  0  0
   -1.5212   -2.6435   -0.1280 O   0  0  0  0  0  0  0  0  0  0  0  0
   -1.5501   -0.2478    0.7921 C   0  0  0  0  0  0  0  0  0  0  0  0
   -0.7087   -0.1957    2.0463 C   0  0  0  0  0  0  0  0  0  0  0  0
    0.5235   -1.0361    1.7468 C   0  0  0  0  0  0  0  0  0  0  0  0
    1.2360   -0.3264    0.6916 N   0  0  0  0  0  0  0  0  0  0  0  0
    2.6490   -0.4745    0.6243 C   0  0  0  0  0  0  0  0  0  0  0  0
    3.2259   -1.1962    1.4559 O   0  0  0  0  0  0  0  0  0  0  0  0
    3.3965    0.1854   -0.3704 N   0  0  0  0  0  0  0  0  0  0  0  0
    4.7899    0.1445   -0.5822 C   0  0  0  0  0  0  0  0  0  0  0  0
    5.5883   -0.7652    0.0495 C   0  0  0  0  0  0  0  0  0  0  0  0
    6.9788   -0.8008   -0.1445 C   0  0  0  0  0  0  0  0  0  0  0  0
    7.7091   -1.7252    0.5111 F   0  0  0  0  0  0  0  0  0  0  0  0
    7.5182    0.1167   -0.9987 C   0  0  0  0  0  0  0  0  0  0  0  0
    6.7449    1.0472   -1.6524 C   0  0  0  0  0  0  0  0  0  0  0  0
    7.3258    1.9505   -2.5017 F   0  0  0  0  0  0  0  0  0  0  0  0
    5.4036    1.0515   -1.4398 C   0  0  0  0  0  0  0  0  0  0  0  0
    0.5971    0.5056   -0.2743 C   0  0  0  0  0  0  0  0  0  0  0  0
   -0.8790    0.5141   -0.2940 C   0  0  0  0  0  0  0  0  0  0  0  0
   -2.9938   -0.0115    1.0143 C   0  0  0  0  0  0  0  0  0  0  0  0
   -3.7775    0.4801   -0.1171 C   0  0  0  0  0  0  0  0  0  0  0  0
   -3.8328   -0.1799   -1.3178 C   0  0  0  0  0  0  0  0  0  0  0  0
   -4.5879    0.3088   -2.3876 C   0  0  0  0  0  0  0  0  0  0  0  0
   -5.2951    1.4780   -2.2417 C   0  0  0  0  0  0  0  0  0  0  0  0
   -6.2487    2.0943   -3.5943 Cl  0  0  0  0  0  0  0  0  0  0  0  0
   -5.2488    2.1400   -1.0598 C   0  0  0  0  0  0  0  0  0  0  0  0
   -4.5040    1.6508   -0.0162 C   0  0  0  0  0  0  0  0  0  0  0  0
   -4.1669   -3.2546    1.4271 H   0  0  0  0  0  0  0  0  0  0  0  0
   -3.6202   -2.4993    2.9977 H   0  0  0  0  0  0  0  0  0  0  0  0
   -4.9737   -1.7433    2.1204 H   0  0  0  0  0  0  0  0  0  0  0  0
   -0.3386    0.8389    2.2263 H   0  0  0  0  0  0  0  0  0  0  0  0
   -1.2563   -0.5713    2.9324 H   0  0  0  0  0  0  0  0  0  0  0  0
    1.1498   -1.1416    2.6536 H   0  0  0  0  0  0  0  0  0  0  0  0
    0.1553   -2.0077    1.3687 H   0  0  0  0  0  0  0  0  0  0  0  0
    2.8681    0.8034   -1.0720 H   0  0  0  0  0  0  0  0  0  0  0  0
    5.2206   -1.5106    0.7199 H   0  0  0  0  0  0  0  0  0  0  0  0
    8.5953    0.1015   -1.1594 H   0  0  0  0  0  0  0  0  0  0  0  0
    4.8036    1.7749   -1.9481 H   0  0  0  0  0  0  0  0  0  0  0  0
    0.9498    0.1561   -1.2892 H   0  0  0  0  0  0  0  0  0  0  0  0
    1.0363    1.5376   -0.1832 H   0  0  0  0  0  0  0  0  0  0  0  0
   -1.2165    1.5877   -0.1983 H   0  0  0  0  0  0  0  0  0  0  0  0
   -1.3008    0.1933   -1.2829 H   0  0  0  0  0  0  0  0  0  0  0  0
   -3.1382    0.5597    1.9694 H   0  0  0  0  0  0  0  0  0  0  0  0
   -3.3046   -1.1022   -1.5024 H   0  0  0  0  0  0  0  0  0  0  0  0
   -4.6419   -0.1977   -3.3376 H   0  0  0  0  0  0  0  0  0  0  0  0
   -5.7931    3.0567   -0.9205 H   0  0  0  0  0  0  0  0  0  0  0  0
   -4.4947    2.2080    0.9055 H   0  0  0  0  0  0  0  0  0  0  0  0
  1  2  1  0
  2  3  1  0
  3  4  2  0
  3  5  1  0
  5  6  1  0
  6  7  1  0
  7  8  1  0
  8  9  1  0
  9 10  2  0
  9 11  1  0
 11 12  1  0
 12 13  2  0
 13 14  1  0
 14 15  1  0
 14 16  2  0
 16 17  1  0
 17 18  1  0
 17 19  2  0
  8 20  1  0
 20 21  1  0
  5 22  1  0
 22 23  1  0
 23 24  2  0
 24 25  1  0
 25 26  2  0
 26 27  1  0
 26 28  1  0
 28 29  2  0
 22  2  1  0
 29 23  1  0
 21  5  1  0
 19 12  1  0
  1 30  1  0
  1 31  1  0
  1 32  1  0
  6 33  1  0
  6 34  1  0
  7 35  1  0
  7 36  1  0
 11 37  1  0
 13 38  1  0
 16 39  1  0
 19 40  1  0
 20 41  1  0
 20 42  1  0
 21 43  1  0
 21 44  1  0
 22 45  1  0
 24 46  1  0
 25 47  1  0
 28 48  1  0
 29 49  1  0
M  END
$$$$
