
     RDKit          3D

 67 69  0  0  0  0  0  0  0  0999 V2000
    6.5151    2.0048    1.0009 C   0  0  0  0  0  0  0  0  0  0  0  0
    6.5148    0.4785    1.1054 C   0  0  0  0  0  0  0  0  0  0  0  0
    5.1201   -0.0523    1.0391 C   0  0  2  0  0  0  0  0  0  0  0  0
    5.1567   -1.5575    1.1435 C   0  0  0  0  0  0  0  0  0  0  0  0
    4.3994    0.3745   -0.2211 C   0  0  2  0  0  0  0  0  0  0  0  0
    3.0407   -0.1699   -0.2296 N   0  0  0  0  0  0  0  0  0  0  0  0
    1.9574    0.7305   -0.1885 C   0  0  0  0  0  0  0  0  0  0  0  0
    2.1972    1.9823   -0.1473 O   0  0  0  0  0  0  0  0  0  0  0  0
    0.5996    0.3346   -0.1895 N   0  0  0  0  0  0  0  0  0  0  0  0
    0.2910   -1.0507   -0.2290 C   0  0  0  0  0  0  0  0  0  0  0  0
   -1.1108   -1.4612   -0.0096 C   0  0  0  0  0  0  0  0  0  0  0  0
   -2.1244   -0.3567    0.0760 C   0  0  0  0  0  0  0  0  0  0  0  0
   -1.5178    0.7875    0.7877 C   0  0  0  0  0  0  0  0  0  0  0  0
   -0.4309    1.3298   -0.1522 C   0  0  0  0  0  0  0  0  0  0  0  0
   -2.7634    0.0009   -1.2732 C   0  0  0  0  0  0  0  0  0  0  0  0
   -3.8587   -0.8126   -0.8978 N   0  0  0  0  0  0  0  0  0  0  0  0
   -5.1573   -0.5847   -1.3702 C   0  0  0  0  0  0  0  0  0  0  0  0
   -5.2090   -0.7461   -2.8958 C   0  0  0  0  0  0  0  0  0  0  0  0
   -6.0548   -1.7180   -0.8415 C   0  0  0  0  0  0  0  0  0  0  0  0
   -3.5082   -0.7941    0.4632 C   0  0  0  0  0  0  0  0  0  0  0  0
   -4.2422    0.0193    1.4250 C   0  0  0  0  0  0  0  0  0  0  0  0
   -4.6267   -0.4906    2.6612 C   0  0  0  0  0  0  0  0  0  0  0  0
   -5.3157    0.2184    3.6075 C   0  0  0  0  0  0  0  0  0  0  0  0
   -5.6636    1.5093    3.3561 C   0  0  0  0  0  0  0  0  0  0  0  0
   -6.5514    2.4351    4.5669 Cl  0  0  0  0  0  0  0  0  0  0  0  0
   -5.3156    2.0763    2.1549 C   0  0  0  0  0  0  0  0  0  0  0  0
   -4.6124    1.3387    1.1999 C   0  0  0  0  0  0  0  0  0  0  0  0
    5.1112    0.0015   -1.4626 C   0  0  0  0  0  0  0  0  0  0  0  0
    4.5071   -0.7128   -2.3020 O   0  0  0  0  0  0  0  0  0  0  0  0
    6.3991    0.3836   -1.7706 O   0  0  0  0  0  0  0  0  0  0  0  0
    7.0865    0.0408   -2.9410 C   0  0  0  0  0  0  0  0  0  0  0  0
    5.5024    2.4227    1.1677 H   0  0  0  0  0  0  0  0  0  0  0  0
    6.9616    2.3404    0.0615 H   0  0  0  0  0  0  0  0  0  0  0  0
    7.1697    2.4085    1.8098 H   0  0  0  0  0  0  0  0  0  0  0  0
    7.1521   -0.0010    0.3601 H   0  0  0  0  0  0  0  0  0  0  0  0
    6.9162    0.1874    2.1238 H   0  0  0  0  0  0  0  0  0  0  0  0
    4.5922    0.3125    1.9476 H   0  0  0  0  0  0  0  0  0  0  0  0
    6.1204   -1.8670    1.6008 H   0  0  0  0  0  0  0  0  0  0  0  0
    4.3611   -1.9264    1.8190 H   0  0  0  0  0  0  0  0  0  0  0  0
    5.0733   -1.9747    0.1163 H   0  0  0  0  0  0  0  0  0  0  0  0
    4.3230    1.4740   -0.1819 H   0  0  0  0  0  0  0  0  0  0  0  0
    2.8686   -1.2022   -0.2664 H   0  0  0  0  0  0  0  0  0  0  0  0
    0.5894   -1.4234   -1.2549 H   0  0  0  0  0  0  0  0  0  0  0  0
    1.0136   -1.5806    0.4502 H   0  0  0  0  0  0  0  0  0  0  0  0
   -1.1475   -1.9835    0.9940 H   0  0  0  0  0  0  0  0  0  0  0  0
   -1.4392   -2.2738   -0.7235 H   0  0  0  0  0  0  0  0  0  0  0  0
   -2.1621    1.5596    1.1792 H   0  0  0  0  0  0  0  0  0  0  0  0
   -0.9422    0.3741    1.6596 H   0  0  0  0  0  0  0  0  0  0  0  0
   -0.0782    2.3255    0.1703 H   0  0  0  0  0  0  0  0  0  0  0  0
   -0.8866    1.4556   -1.1603 H   0  0  0  0  0  0  0  0  0  0  0  0
   -2.1679   -0.5010   -2.0870 H   0  0  0  0  0  0  0  0  0  0  0  0
   -2.9045    1.0640   -1.4506 H   0  0  0  0  0  0  0  0  0  0  0  0
   -5.6666    0.3421   -1.0581 H   0  0  0  0  0  0  0  0  0  0  0  0
   -6.2089   -1.0288   -3.2349 H   0  0  0  0  0  0  0  0  0  0  0  0
   -4.8849    0.1486   -3.4206 H   0  0  0  0  0  0  0  0  0  0  0  0
   -4.5052   -1.5661   -3.1447 H   0  0  0  0  0  0  0  0  0  0  0  0
   -5.5048   -2.6576   -0.8676 H   0  0  0  0  0  0  0  0  0  0  0  0
   -6.9747   -1.7375   -1.4710 H   0  0  0  0  0  0  0  0  0  0  0  0
   -6.4133   -1.4326    0.1818 H   0  0  0  0  0  0  0  0  0  0  0  0
   -3.4472   -1.8624    0.8347 H   0  0  0  0  0  0  0  0  0  0  0  0
   -4.3586   -1.5156    2.8787 H   0  0  0  0  0  0  0  0  0  0  0  0
   -5.5870   -0.2510    4.5654 H   0  0  0  0  0  0  0  0  0  0  0  0
   -5.5846    3.0907    1.9481 H   0  0  0  0  0  0  0  0  0  0  0  0
   -4.3658    1.8191    0.2889 H   0  0  0  0  0  0  0  0  0  0  0  0
    7.3006    0.9837   -3.4963 H   0  0  0  0  0  0  0  0  0  0  0  0
    6.4482   -0.5633   -3.6213 H   0  0  0  0  0  0  0  0  0  0  0  0
    8.0039   -0.4991   -2.6580 H   0  0  0  0  0  0  0  0  0  0  0  0
  1  2  1  0
  2  3  1  0
  3  4  1  0
  3  5  1  0
  5  6  1  0
  6  7  1  0
  7  8  2  0
  7  9  1  0
  9 10  1  0
 10 11  1  0
 11 12  1  0
 12 13  1  0
 13 14  1  0
 12 15  1  0
 15 16  1  0
 16 17  1  0
 17 18  1  0
 17 19  1  0
 16 20  1  0
 20 21  1  0
 21 22  2  0
 22 23  1  0
 23 24  2  0
 24 25  1  0
 24 26  1  0
 26 27  2  0
  5 28  1  0
 28 29  2  0
 28 30  1  0
 30 31  1  0
 14  9  1  0
 27 21  1  0
 20 12  1  0
  1 32  1  0
  1 33  1  0
  1 34  1  0
  2 35  1  0
  2 36  1  0
  3 37  1  1
  4 38  1  0
  4 39  1  0
  4 40  1  0
  5 41  1  1
  6 42  1  0
 10 43  1  0
 10 44  1  0
 11 45  1  0
 11 46  1  0
 13 47  1  0
 13 48  1  0
 14 49  1  0
 14 50  1  0
 15 51  1  0
 15 52  1  0
 17 53  1  0
 18 54  1  0
 18 55  1  0
 18 56  1  0
 19 57  1  0
 19 58  1  0
 19 59  1  0
 20 60  1  0
 22 61  1  0
 23 62  1  0
 26 63  1  0
 27 64  1  0
 31 65  1  0
 31 66  1  0
 31 67  1  0
M  END
$$$$
