
     RDKit          3D

 71 73  0  0  0  0  0  0  0  0999 V2000
   -4.5651    3.1489    2.5596 C   0  0  0  0  0  0  0  0  0  0  0  0
   -5.0198    2.9334    1.1335 C   0  0  0  0  0  0  0  0  0  0  0  0
   -6.5391    3.0979    1.0965 C   0  0  0  0  0  0  0  0  0  0  0  0
   -4.6855    1.5703    0.7250 N   0  0  0  0  0  0  0  0  0  0  0  0
   -4.0200    1.3126   -0.4745 C   0  0  0  0  0  0  0  0  0  0  0  0
   -3.7327    2.3502   -1.1870 O   0  0  0  0  0  0  0  0  0  0  0  0
   -3.6037    0.0218   -1.0332 C   0  0  0  0  0  0  0  0  0  0  0  0
   -3.9609   -1.0673   -0.1643 N   0  0  0  0  0  0  0  0  0  0  0  0
   -5.1449   -1.7911   -0.4209 C   0  0  0  0  0  0  0  0  0  0  0  0
   -6.3566   -1.5429    0.1596 C   0  0  0  0  0  0  0  0  0  0  0  0
   -7.4916   -2.2999   -0.1399 C   0  0  0  0  0  0  0  0  0  0  0  0
   -7.4419   -3.3308   -1.0320 C   0  0  0  0  0  0  0  0  0  0  0  0
   -6.2396   -3.6054   -1.6328 C   0  0  0  0  0  0  0  0  0  0  0  0
   -6.1332   -4.9125   -2.7745 Cl  0  0  0  0  0  0  0  0  0  0  0  0
   -5.1297   -2.8594   -1.3358 C   0  0  0  0  0  0  0  0  0  0  0  0
   -2.8306   -1.4720    1.0791 S   0  0  0  0  0  0  0  0  0  0  0  0
   -3.4387   -2.5581    1.9114 O   0  0  0  0  0  0  0  0  0  0  0  0
   -2.6203   -0.2685    1.9470 O   0  0  0  0  0  0  0  0  0  0  0  0
   -1.3030   -1.9999    0.4121 C   0  0  0  0  0  0  0  0  0  0  0  0
   -1.0493   -3.3575    0.2715 C   0  0  0  0  0  0  0  0  0  0  0  0
    0.1388   -3.8135   -0.2623 C   0  0  0  0  0  0  0  0  0  0  0  0
    1.1076   -2.9302   -0.6710 C   0  0  0  0  0  0  0  0  0  0  0  0
    0.8793   -1.5631   -0.5425 C   0  0  0  0  0  0  0  0  0  0  0  0
    1.9216   -0.7139   -0.9789 N   0  0  0  0  0  0  0  0  0  0  0  0
    1.8388    0.6741   -1.2180 C   0  0  0  0  0  0  0  0  0  0  0  0
    0.7871    1.2883   -1.0511 O   0  0  0  0  0  0  0  0  0  0  0  0
    3.0310    1.4608   -1.6864 C   0  0  0  0  0  0  0  0  0  0  0  0
    4.1675    0.5510   -1.8100 N   0  0  0  0  0  0  0  0  0  0  0  0
    4.4268   -0.1454   -3.0510 C   0  0  0  0  0  0  0  0  0  0  0  0
    5.0510    0.3364   -0.6945 C   0  0  0  0  0  0  0  0  0  0  0  0
    6.0128   -0.4633   -0.8135 O   0  0  0  0  0  0  0  0  0  0  0  0
    4.8663    0.9897    0.5063 O   0  0  0  0  0  0  0  0  0  0  0  0
    5.7179    0.7971    1.6176 C   0  0  0  0  0  0  0  0  0  0  0  0
    7.1279    1.1529    1.3594 C   0  0  0  0  0  0  0  0  0  0  0  0
    7.5128    1.8342    0.2388 C   0  0  0  0  0  0  0  0  0  0  0  0
    8.8324    2.1641   -0.0101 C   0  0  0  0  0  0  0  0  0  0  0  0
    9.8145    1.7986    0.8993 C   0  0  0  0  0  0  0  0  0  0  0  0
    9.4467    1.1177    2.0225 C   0  0  0  0  0  0  0  0  0  0  0  0
    8.1059    0.7953    2.2521 C   0  0  0  0  0  0  0  0  0  0  0  0
   -0.3213   -1.1328   -0.0027 C   0  0  0  0  0  0  0  0  0  0  0  0
   -3.7980    2.3594    2.7836 H   0  0  0  0  0  0  0  0  0  0  0  0
   -5.4130    2.9830    3.2565 H   0  0  0  0  0  0  0  0  0  0  0  0
   -4.1225    4.1454    2.6973 H   0  0  0  0  0  0  0  0  0  0  0  0
   -4.5665    3.6986    0.4807 H   0  0  0  0  0  0  0  0  0  0  0  0
   -6.9797    2.0918    1.2404 H   0  0  0  0  0  0  0  0  0  0  0  0
   -6.8541    3.5789    0.1507 H   0  0  0  0  0  0  0  0  0  0  0  0
   -6.8390    3.7245    1.9435 H   0  0  0  0  0  0  0  0  0  0  0  0
   -4.9552    0.8086    1.3546 H   0  0  0  0  0  0  0  0  0  0  0  0
   -2.4983    0.0264   -1.2032 H   0  0  0  0  0  0  0  0  0  0  0  0
   -4.0566   -0.1394   -2.0661 H   0  0  0  0  0  0  0  0  0  0  0  0
   -6.4881   -0.7574    0.8780 H   0  0  0  0  0  0  0  0  0  0  0  0
   -8.4574   -2.1020    0.3234 H   0  0  0  0  0  0  0  0  0  0  0  0
   -8.3493   -3.9121   -1.2510 H   0  0  0  0  0  0  0  0  0  0  0  0
   -4.1734   -3.0717   -1.8065 H   0  0  0  0  0  0  0  0  0  0  0  0
   -1.8093   -4.0462    0.5920 H   0  0  0  0  0  0  0  0  0  0  0  0
    0.3630   -4.8626   -0.3867 H   0  0  0  0  0  0  0  0  0  0  0  0
    2.0561   -3.3047   -1.0962 H   0  0  0  0  0  0  0  0  0  0  0  0
    2.8671   -1.1347   -1.1490 H   0  0  0  0  0  0  0  0  0  0  0  0
    3.2781    2.1690   -0.8728 H   0  0  0  0  0  0  0  0  0  0  0  0
    2.8279    1.9697   -2.6455 H   0  0  0  0  0  0  0  0  0  0  0  0
    4.6725   -1.2075   -2.8135 H   0  0  0  0  0  0  0  0  0  0  0  0
    3.5696   -0.1251   -3.7302 H   0  0  0  0  0  0  0  0  0  0  0  0
    5.2977    0.2783   -3.5976 H   0  0  0  0  0  0  0  0  0  0  0  0
    5.2722    1.3900    2.4649 H   0  0  0  0  0  0  0  0  0  0  0  0
    5.6119   -0.2762    1.9267 H   0  0  0  0  0  0  0  0  0  0  0  0
    6.7676    2.1451   -0.5005 H   0  0  0  0  0  0  0  0  0  0  0  0
    9.1347    2.6970   -0.8865 H   0  0  0  0  0  0  0  0  0  0  0  0
   10.8691    2.0599    0.7029 H   0  0  0  0  0  0  0  0  0  0  0  0
   10.2237    0.8424    2.7183 H   0  0  0  0  0  0  0  0  0  0  0  0
    7.9050    0.2549    3.1686 H   0  0  0  0  0  0  0  0  0  0  0  0
   -0.5149   -0.0854    0.1190 H   0  0  0  0  0  0  0  0  0  0  0  0
  1  2  1  0
  2  3  1  0
  2  4  1  0
  4  5  1  0
  5  6  2  0
  5  7  1  0
  7  8  1  0
  8  9  1  0
  9 10  2  0
 10 11  1  0
 11 12  2  0
 12 13  1  0
 13 14  1  0
 13 15  2  0
  8 16  1  0
 16 17  2  0
 16 18  2  0
 16 19  1  0
 19 20  2  0
 20 21  1  0
 21 22  2  0
 22 23  1  0
 23 24  1  0
 24 25  1  0
 25 26  2  0
 25 27  1  0
 27 28  1  0
 28 29  1  0
 28 30  1  0
 30 31  2  0
 30 32  1  0
 32 33  1  0
 33 34  1  0
 34 35  2  0
 35 36  1  0
 36 37  2  0
 37 38  1  0
 38 39  2  0
 23 40  2  0
 15  9  1  0
 40 19  1  0
 39 34  1  0
  1 41  1  0
  1 42  1  0
  1 43  1  0
  2 44  1  0
  3 45  1  0
  3 46  1  0
  3 47  1  0
  4 48  1  0
  7 49  1  0
  7 50  1  0
 10 51  1  0
 11 52  1  0
 12 53  1  0
 15 54  1  0
 20 55  1  0
 21 56  1  0
 22 57  1  0
 24 58  1  0
 27 59  1  0
 27 60  1  0
 29 61  1  0
 29 62  1  0
 29 63  1  0
 33 64  1  0
 33 65  1  0
 35 66  1  0
 36 67  1  0
 37 68  1  0
 38 69  1  0
 39 70  1  0
 40 71  1  0
M  END
$$$$
