
     RDKit          3D

 50 53  0  0  0  0  0  0  0  0999 V2000
   -4.7583    1.8681    0.2960 C   0  0  0  0  0  0  0  0  0  0  0  0
   -3.3554    2.0131    0.4009 N   0  0  0  0  0  0  0  0  0  0  0  0
   -2.5865    2.1983   -0.7802 C   0  0  0  0  0  0  0  0  0  0  0  0
   -1.5568    1.2372   -0.2292 C   0  0  0  0  0  0  0  0  0  0  0  0
   -1.0622    0.1933   -1.1385 C   0  0  0  0  0  0  0  0  0  0  0  0
    0.2599    0.6358   -1.7337 C   0  0  0  0  0  0  0  0  0  0  0  0
    1.2177    0.6034   -0.6557 N   0  0  0  0  0  0  0  0  0  0  0  0
    2.5045    0.0484   -0.8608 C   0  0  0  0  0  0  0  0  0  0  0  0
    2.7847   -0.4052   -1.9844 O   0  0  0  0  0  0  0  0  0  0  0  0
    3.4067    0.0403    0.2312 N   0  0  0  0  0  0  0  0  0  0  0  0
    4.7003   -0.4814    0.1639 C   0  0  0  0  0  0  0  0  0  0  0  0
    5.5881   -0.1508    1.2006 C   0  0  0  0  0  0  0  0  0  0  0  0
    6.8685   -0.6347    1.2159 C   0  0  0  0  0  0  0  0  0  0  0  0
    7.7147   -0.3065    2.2242 F   0  0  0  0  0  0  0  0  0  0  0  0
    7.3435   -1.4577    0.2303 C   0  0  0  0  0  0  0  0  0  0  0  0
    6.4939   -1.7870   -0.7814 C   0  0  0  0  0  0  0  0  0  0  0  0
    6.9314   -2.5940   -1.7647 F   0  0  0  0  0  0  0  0  0  0  0  0
    5.1779   -1.3042   -0.8191 C   0  0  0  0  0  0  0  0  0  0  0  0
    0.8178    1.1505    0.6192 C   0  0  0  0  0  0  0  0  0  0  0  0
   -0.3916    2.0258    0.3280 C   0  0  0  0  0  0  0  0  0  0  0  0
   -2.5735    0.8905    0.8011 C   0  0  0  0  0  0  0  0  0  0  0  0
   -3.2143   -0.4351    0.7088 C   0  0  0  0  0  0  0  0  0  0  0  0
   -3.1190   -1.3645    1.7265 C   0  0  0  0  0  0  0  0  0  0  0  0
   -3.7117   -2.6085    1.6570 C   0  0  0  0  0  0  0  0  0  0  0  0
   -4.4399   -2.9940    0.5533 C   0  0  0  0  0  0  0  0  0  0  0  0
   -5.0403   -4.1948    0.4302 F   0  0  0  0  0  0  0  0  0  0  0  0
   -4.5438   -2.0778   -0.4694 C   0  0  0  0  0  0  0  0  0  0  0  0
   -3.9471   -0.8354   -0.3908 C   0  0  0  0  0  0  0  0  0  0  0  0
   -5.1571    1.9025   -0.7367 H   0  0  0  0  0  0  0  0  0  0  0  0
   -5.2625    2.7282    0.8275 H   0  0  0  0  0  0  0  0  0  0  0  0
   -5.0744    0.9658    0.8587 H   0  0  0  0  0  0  0  0  0  0  0  0
   -3.0391    1.9174   -1.7457 H   0  0  0  0  0  0  0  0  0  0  0  0
   -2.2451    3.2628   -0.8549 H   0  0  0  0  0  0  0  0  0  0  0  0
   -1.7213   -0.0489   -1.9931 H   0  0  0  0  0  0  0  0  0  0  0  0
   -0.8568   -0.7311   -0.5614 H   0  0  0  0  0  0  0  0  0  0  0  0
    0.1276    1.6788   -2.1069 H   0  0  0  0  0  0  0  0  0  0  0  0
    0.5601    0.0016   -2.5913 H   0  0  0  0  0  0  0  0  0  0  0  0
    3.0865    0.4511    1.1675 H   0  0  0  0  0  0  0  0  0  0  0  0
    5.2464    0.4928    1.9874 H   0  0  0  0  0  0  0  0  0  0  0  0
    8.3670   -1.8328    0.2601 H   0  0  0  0  0  0  0  0  0  0  0  0
    4.5435   -1.6135   -1.6512 H   0  0  0  0  0  0  0  0  0  0  0  0
    0.5940    0.3386    1.3167 H   0  0  0  0  0  0  0  0  0  0  0  0
    1.6135    1.8423    0.9595 H   0  0  0  0  0  0  0  0  0  0  0  0
   -0.0872    2.8010   -0.3841 H   0  0  0  0  0  0  0  0  0  0  0  0
   -0.6435    2.5315    1.2878 H   0  0  0  0  0  0  0  0  0  0  0  0
   -2.1672    1.0467    1.8225 H   0  0  0  0  0  0  0  0  0  0  0  0
   -2.5615   -1.1220    2.6183 H   0  0  0  0  0  0  0  0  0  0  0  0
   -3.6329   -3.3365    2.4623 H   0  0  0  0  0  0  0  0  0  0  0  0
   -5.1220   -2.3665   -1.3612 H   0  0  0  0  0  0  0  0  0  0  0  0
   -4.0772   -0.1831   -1.2305 H   0  0  0  0  0  0  0  0  0  0  0  0
  1  2  1  0
  2  3  1  0
  3  4  1  0
  4  5  1  0
  5  6  1  0
  6  7  1  0
  7  8  1  0
  8  9  2  0
  8 10  1  0
 10 11  1  0
 11 12  2  0
 12 13  1  0
 13 14  1  0
 13 15  2  0
 15 16  1  0
 16 17  1  0
 16 18  2  0
  7 19  1  0
 19 20  1  0
  4 21  1  0
 21 22  1  0
 22 23  2  0
 23 24  1  0
 24 25  2  0
 25 26  1  0
 25 27  1  0
 27 28  2  0
 21  2  1  0
 28 22  1  0
 20  4  1  0
 18 11  1  0
  1 29  1  0
  1 30  1  0
  1 31  1  0
  3 32  1  0
  3 33  1  0
  5 34  1  0
  5 35  1  0
  6 36  1  0
  6 37  1  0
 10 38  1  0
 12 39  1  0
 15 40  1  0
 18 41  1  0
 19 42  1  0
 19 43  1  0
 20 44  1  0
 20 45  1  0
 21 46  1  0
 23 47  1  0
 24 48  1  0
 27 49  1  0
 28 50  1  0
M  END
$$$$
