
     RDKit          3D

 65 68  0  0  0  0  0  0  0  0999 V2000
    6.4197   -1.9866   -0.0240 C   0  0  0  0  0  0  0  0  0  0  0  0
    5.1901   -1.2604    0.4726 C   0  0  0  0  0  0  0  0  0  0  0  0
    5.1601    0.0980   -0.2136 C   0  0  2  0  0  0  0  0  0  0  0  0
    6.4112    0.8394    0.1547 C   0  0  0  0  0  0  0  0  0  0  0  0
    3.9357    0.8896    0.1882 C   0  0  2  0  0  0  0  0  0  0  0  0
    2.7426    0.1503   -0.1902 N   0  0  0  0  0  0  0  0  0  0  0  0
    1.8101   -0.2530    0.7926 C   0  0  0  0  0  0  0  0  0  0  0  0
    2.0667    0.0565    1.9797 O   0  0  0  0  0  0  0  0  0  0  0  0
    0.6439   -0.9660    0.4917 N   0  0  0  0  0  0  0  0  0  0  0  0
   -0.2457   -1.3321    1.5931 C   0  0  0  0  0  0  0  0  0  0  0  0
   -1.5629   -0.5818    1.3388 C   0  0  0  0  0  0  0  0  0  0  0  0
   -2.1439   -1.1411    0.0953 C   0  0  0  0  0  0  0  0  0  0  0  0
   -1.2453   -1.1819   -1.0753 C   0  0  0  0  0  0  0  0  0  0  0  0
    0.2060   -1.3931   -0.8121 C   0  0  0  0  0  0  0  0  0  0  0  0
   -2.8425   -2.4724    0.4306 C   0  0  0  0  0  0  0  0  0  0  0  0
   -4.0076   -1.6295    0.7594 N   0  0  0  0  0  0  0  0  0  0  0  0
   -5.2720   -2.2781    0.5330 C   0  0  0  0  0  0  0  0  0  0  0  0
   -6.4958   -1.4870    0.8427 C   0  0  0  0  0  0  0  0  0  0  0  0
   -6.1642   -1.9516   -0.5727 C   0  0  0  0  0  0  0  0  0  0  0  0
   -3.5379   -0.7640   -0.2948 C   0  0  0  0  0  0  0  0  0  0  0  0
   -3.9394    0.6236   -0.3114 C   0  0  0  0  0  0  0  0  0  0  0  0
   -4.3312    1.2110   -1.5226 C   0  0  0  0  0  0  0  0  0  0  0  0
   -4.7270    2.5261   -1.6067 C   0  0  0  0  0  0  0  0  0  0  0  0
   -4.7263    3.2633   -0.4392 C   0  0  0  0  0  0  0  0  0  0  0  0
   -5.2278    4.9529   -0.5093 Cl  0  0  0  0  0  0  0  0  0  0  0  0
   -4.3512    2.7325    0.7701 C   0  0  0  0  0  0  0  0  0  0  0  0
   -3.9617    1.4099    0.8084 C   0  0  0  0  0  0  0  0  0  0  0  0
    3.9895    2.1801   -0.5465 C   0  0  0  0  0  0  0  0  0  0  0  0
    3.0689    2.4635   -1.3488 O   0  0  0  0  0  0  0  0  0  0  0  0
    5.0052    3.0877   -0.3906 O   0  0  0  0  0  0  0  0  0  0  0  0
    5.0955    4.3241   -1.0677 C   0  0  0  0  0  0  0  0  0  0  0  0
    6.1308   -2.9532   -0.4959 H   0  0  0  0  0  0  0  0  0  0  0  0
    6.9847   -1.3894   -0.7827 H   0  0  0  0  0  0  0  0  0  0  0  0
    7.1429   -2.1750    0.8048 H   0  0  0  0  0  0  0  0  0  0  0  0
    5.2406   -1.1510    1.5688 H   0  0  0  0  0  0  0  0  0  0  0  0
    4.2762   -1.7916    0.1372 H   0  0  0  0  0  0  0  0  0  0  0  0
    5.1343   -0.0937   -1.3143 H   0  0  0  0  0  0  0  0  0  0  0  0
    6.7773    1.3707   -0.7618 H   0  0  0  0  0  0  0  0  0  0  0  0
    7.2272    0.1625    0.5206 H   0  0  0  0  0  0  0  0  0  0  0  0
    6.2584    1.5822    0.9528 H   0  0  0  0  0  0  0  0  0  0  0  0
    3.9396    1.0409    1.2819 H   0  0  0  0  0  0  0  0  0  0  0  0
    2.5851   -0.0776   -1.1894 H   0  0  0  0  0  0  0  0  0  0  0  0
    0.1383   -1.0050    2.5697 H   0  0  0  0  0  0  0  0  0  0  0  0
   -0.4315   -2.4285    1.5409 H   0  0  0  0  0  0  0  0  0  0  0  0
   -2.1977   -0.8961    2.2199 H   0  0  0  0  0  0  0  0  0  0  0  0
   -1.3364    0.4858    1.3298 H   0  0  0  0  0  0  0  0  0  0  0  0
   -1.3500   -0.2066   -1.6281 H   0  0  0  0  0  0  0  0  0  0  0  0
   -1.6064   -1.9534   -1.7880 H   0  0  0  0  0  0  0  0  0  0  0  0
    0.7972   -0.8955   -1.6018 H   0  0  0  0  0  0  0  0  0  0  0  0
    0.4147   -2.4915   -0.9426 H   0  0  0  0  0  0  0  0  0  0  0  0
   -2.9896   -3.1252   -0.4395 H   0  0  0  0  0  0  0  0  0  0  0  0
   -2.4371   -2.9540    1.3473 H   0  0  0  0  0  0  0  0  0  0  0  0
   -5.2994   -3.3359    0.9121 H   0  0  0  0  0  0  0  0  0  0  0  0
   -7.3814   -1.9817    1.3312 H   0  0  0  0  0  0  0  0  0  0  0  0
   -6.4293   -0.4190    1.0749 H   0  0  0  0  0  0  0  0  0  0  0  0
   -6.7998   -2.7802   -1.0014 H   0  0  0  0  0  0  0  0  0  0  0  0
   -6.0207   -1.1329   -1.2758 H   0  0  0  0  0  0  0  0  0  0  0  0
   -3.7621   -1.2885   -1.2747 H   0  0  0  0  0  0  0  0  0  0  0  0
   -4.3299    0.6197   -2.4489 H   0  0  0  0  0  0  0  0  0  0  0  0
   -5.0317    2.9895   -2.5380 H   0  0  0  0  0  0  0  0  0  0  0  0
   -4.3468    3.3019    1.6929 H   0  0  0  0  0  0  0  0  0  0  0  0
   -3.6536    0.9312    1.7457 H   0  0  0  0  0  0  0  0  0  0  0  0
    4.4663    5.1141   -0.5751 H   0  0  0  0  0  0  0  0  0  0  0  0
    6.1824    4.6081   -1.0401 H   0  0  0  0  0  0  0  0  0  0  0  0
    4.7446    4.1890   -2.1223 H   0  0  0  0  0  0  0  0  0  0  0  0
  1  2  1  0
  2  3  1  0
  3  4  1  0
  3  5  1  0
  5  6  1  0
  6  7  1  0
  7  8  2  0
  7  9  1  0
  9 10  1  0
 10 11  1  0
 11 12  1  0
 12 13  1  0
 13 14  1  0
 12 15  1  0
 15 16  1  0
 16 17  1  0
 17 18  1  0
 18 19  1  0
 16 20  1  0
 20 21  1  0
 21 22  2  0
 22 23  1  0
 23 24  2  0
 24 25  1  0
 24 26  1  0
 26 27  2  0
  5 28  1  0
 28 29  2  0
 28 30  1  0
 30 31  1  0
 14  9  1  0
 19 17  1  0
 27 21  1  0
 20 12  1  0
  1 32  1  0
  1 33  1  0
  1 34  1  0
  2 35  1  0
  2 36  1  0
  3 37  1  6
  4 38  1  0
  4 39  1  0
  4 40  1  0
  5 41  1  1
  6 42  1  0
 10 43  1  0
 10 44  1  0
 11 45  1  0
 11 46  1  0
 13 47  1  0
 13 48  1  0
 14 49  1  0
 14 50  1  0
 15 51  1  0
 15 52  1  0
 17 53  1  0
 18 54  1  0
 18 55  1  0
 19 56  1  0
 19 57  1  0
 20 58  1  0
 22 59  1  0
 23 60  1  0
 26 61  1  0
 27 62  1  0
 31 63  1  0
 31 64  1  0
 31 65  1  0
M  END
$$$$
