
     RDKit          3D

 65 68  0  0  0  0  0  0  0  0999 V2000
    7.3942   -2.5442    0.5115 C   0  0  0  0  0  0  0  0  0  0  0  0
    6.8633   -1.1094    0.3951 C   0  0  0  0  0  0  0  0  0  0  0  0
    5.3733   -1.1305    0.5050 C   0  0  2  0  0  0  0  0  0  0  0  0
    4.8704   -2.0132   -0.6584 C   0  0  0  0  0  0  0  0  0  0  0  0
    4.6914    0.1806    0.3958 C   0  0  2  0  0  0  0  0  0  0  0  0
    3.2391    0.0015    0.5395 N   0  0  0  0  0  0  0  0  0  0  0  0
    2.3972    0.9855    1.0816 C   0  0  0  0  0  0  0  0  0  0  0  0
    2.8918    2.0641    1.4545 O   0  0  0  0  0  0  0  0  0  0  0  0
    1.0170    0.7526    1.1936 N   0  0  0  0  0  0  0  0  0  0  0  0
    0.0873    1.7360    1.7237 C   0  0  0  0  0  0  0  0  0  0  0  0
   -1.0290    1.8620    0.7123 C   0  0  0  0  0  0  0  0  0  0  0  0
   -1.6997    0.5265    0.5495 C   0  0  0  0  0  0  0  0  0  0  0  0
   -0.9594   -0.5802    1.2636 C   0  0  0  0  0  0  0  0  0  0  0  0
    0.4648   -0.5312    0.7675 C   0  0  0  0  0  0  0  0  0  0  0  0
   -1.9972    0.0866   -0.8267 C   0  0  0  0  0  0  0  0  0  0  0  0
   -1.4638    0.1219   -1.9757 O   0  0  0  0  0  0  0  0  0  0  0  0
   -3.2187   -0.4456   -0.3561 N   0  0  0  0  0  0  0  0  0  0  0  0
   -4.1613   -1.4663   -0.7369 C   0  0  0  0  0  0  0  0  0  0  0  0
   -4.2436   -2.6503   -0.0137 C   0  0  0  0  0  0  0  0  0  0  0  0
   -5.1761   -3.6191   -0.3944 C   0  0  0  0  0  0  0  0  0  0  0  0
   -6.0183   -3.4507   -1.4572 C   0  0  0  0  0  0  0  0  0  0  0  0
   -5.9340   -2.2706   -2.1756 C   0  0  0  0  0  0  0  0  0  0  0  0
   -6.7393   -2.0614   -3.2338 F   0  0  0  0  0  0  0  0  0  0  0  0
   -5.0025   -1.2986   -1.7986 C   0  0  0  0  0  0  0  0  0  0  0  0
   -3.1701    0.4952    0.7444 C   0  0  0  0  0  0  0  0  0  0  0  0
   -3.9222    1.7157    0.4401 C   0  0  0  0  0  0  0  0  0  0  0  0
   -3.7950    2.4912   -0.6817 C   0  0  0  0  0  0  0  0  0  0  0  0
   -4.5653    3.6349   -0.8987 C   0  0  0  0  0  0  0  0  0  0  0  0
   -5.4897    4.0291    0.0152 C   0  0  0  0  0  0  0  0  0  0  0  0
   -6.4623    5.4722   -0.2596 Cl  0  0  0  0  0  0  0  0  0  0  0  0
   -5.6496    3.2707    1.1654 C   0  0  0  0  0  0  0  0  0  0  0  0
   -4.8783    2.1459    1.3591 C   0  0  0  0  0  0  0  0  0  0  0  0
    4.9266    0.8543   -0.9327 C   0  0  0  0  0  0  0  0  0  0  0  0
    3.9434    1.1128   -1.6569 O   0  0  0  0  0  0  0  0  0  0  0  0
    6.1940    1.1879   -1.3571 O   0  0  0  0  0  0  0  0  0  0  0  0
    6.3783    1.8104   -2.5908 C   0  0  0  0  0  0  0  0  0  0  0  0
    6.5319    2.3082   -3.6207 N   0  0  0  0  0  0  0  0  0  0  0  0
    8.1598   -2.6089    1.2765 H   0  0  0  0  0  0  0  0  0  0  0  0
    6.5620   -3.2383    0.7796 H   0  0  0  0  0  0  0  0  0  0  0  0
    7.7299   -2.8929   -0.4932 H   0  0  0  0  0  0  0  0  0  0  0  0
    7.3316   -0.5374    1.2310 H   0  0  0  0  0  0  0  0  0  0  0  0
    7.2203   -0.7200   -0.5758 H   0  0  0  0  0  0  0  0  0  0  0  0
    5.0961   -1.6898    1.4231 H   0  0  0  0  0  0  0  0  0  0  0  0
    4.6740   -1.3017   -1.4970 H   0  0  0  0  0  0  0  0  0  0  0  0
    3.9564   -2.5319   -0.3283 H   0  0  0  0  0  0  0  0  0  0  0  0
    5.6767   -2.6743   -1.0057 H   0  0  0  0  0  0  0  0  0  0  0  0
    5.0482    0.8924    1.1456 H   0  0  0  0  0  0  0  0  0  0  0  0
    2.8447   -0.8966    0.2215 H   0  0  0  0  0  0  0  0  0  0  0  0
   -0.3500    1.3321    2.6552 H   0  0  0  0  0  0  0  0  0  0  0  0
    0.5875    2.7074    1.9181 H   0  0  0  0  0  0  0  0  0  0  0  0
   -1.8171    2.5543    1.1036 H   0  0  0  0  0  0  0  0  0  0  0  0
   -0.6505    2.2552   -0.2559 H   0  0  0  0  0  0  0  0  0  0  0  0
   -1.0033   -0.5456    2.3472 H   0  0  0  0  0  0  0  0  0  0  0  0
   -1.3559   -1.5848    0.9311 H   0  0  0  0  0  0  0  0  0  0  0  0
    1.0763   -1.3891    1.1129 H   0  0  0  0  0  0  0  0  0  0  0  0
    0.4340   -0.4565   -0.3546 H   0  0  0  0  0  0  0  0  0  0  0  0
   -3.5747   -2.7804    0.8285 H   0  0  0  0  0  0  0  0  0  0  0  0
   -5.2465   -4.5444    0.1645 H   0  0  0  0  0  0  0  0  0  0  0  0
   -6.7524   -4.2069   -1.7602 H   0  0  0  0  0  0  0  0  0  0  0  0
   -4.9322   -0.3589   -2.3619 H   0  0  0  0  0  0  0  0  0  0  0  0
   -3.5205   -0.0438    1.6611 H   0  0  0  0  0  0  0  0  0  0  0  0
   -3.0764    2.2155   -1.4259 H   0  0  0  0  0  0  0  0  0  0  0  0
   -4.3963    4.1819   -1.8090 H   0  0  0  0  0  0  0  0  0  0  0  0
   -6.3941    3.6200    1.8619 H   0  0  0  0  0  0  0  0  0  0  0  0
   -5.0163    1.5686    2.2618 H   0  0  0  0  0  0  0  0  0  0  0  0
  1  2  1  0
  2  3  1  0
  3  4  1  0
  3  5  1  0
  5  6  1  0
  6  7  1  0
  7  8  2  0
  7  9  1  0
  9 10  1  0
 10 11  1  0
 11 12  1  0
 12 13  1  0
 13 14  1  0
 12 15  1  0
 15 16  2  0
 15 17  1  0
 17 18  1  0
 18 19  2  0
 19 20  1  0
 20 21  2  0
 21 22  1  0
 22 23  1  0
 22 24  2  0
 17 25  1  0
 25 26  1  0
 26 27  2  0
 27 28  1  0
 28 29  2  0
 29 30  1  0
 29 31  1  0
 31 32  2  0
  5 33  1  0
 33 34  2  0
 33 35  1  0
 35 36  1  0
 36 37  3  0
 14  9  1  0
 24 18  1  0
 32 26  1  0
 25 12  1  0
  1 38  1  0
  1 39  1  0
  1 40  1  0
  2 41  1  0
  2 42  1  0
  3 43  1  1
  4 44  1  0
  4 45  1  0
  4 46  1  0
  5 47  1  1
  6 48  1  0
 10 49  1  0
 10 50  1  0
 11 51  1  0
 11 52  1  0
 13 53  1  0
 13 54  1  0
 14 55  1  0
 14 56  1  0
 19 57  1  0
 20 58  1  0
 21 59  1  0
 24 60  1  0
 25 61  1  0
 27 62  1  0
 28 63  1  0
 31 64  1  0
 32 65  1  0
M  END
$$$$
