
     RDKit          3D

 57 62  0  0  0  0  0  0  0  0999 V2000
    0.3488   -0.5860    1.3262 O   0  0  0  0  0  0  0  0  0  0  0  0
   -0.6347   -0.6262    0.5639 C   0  0  0  0  0  0  0  0  0  0  0  0
   -2.0606   -0.5878    0.7839 N   0  0  0  0  0  0  0  0  0  0  0  0
   -2.9488   -0.0652    1.7372 C   0  0  0  0  0  0  0  0  0  0  0  0
   -3.1816   -0.7167    2.9254 C   0  0  0  0  0  0  0  0  0  0  0  0
   -4.0646   -0.1930    3.8729 C   0  0  0  0  0  0  0  0  0  0  0  0
   -4.7139    0.9896    3.6230 C   0  0  0  0  0  0  0  0  0  0  0  0
   -5.5795    1.5193    4.5310 F   0  0  0  0  0  0  0  0  0  0  0  0
   -4.4924    1.6592    2.4337 C   0  0  0  0  0  0  0  0  0  0  0  0
   -5.3390    3.1629    2.1560 Cl  0  0  0  0  0  0  0  0  0  0  0  0
   -3.6041    1.1165    1.4991 C   0  0  0  0  0  0  0  0  0  0  0  0
   -2.1891   -1.3490   -0.4346 C   0  0  0  0  0  0  0  0  0  0  0  0
   -3.3843   -1.1340   -1.2509 C   0  0  0  0  0  0  0  0  0  0  0  0
   -4.6168   -1.1496   -0.6440 C   0  0  0  0  0  0  0  0  0  0  0  0
   -5.8174   -0.9578   -1.2816 C   0  0  0  0  0  0  0  0  0  0  0  0
   -5.7534   -0.7316   -2.6539 C   0  0  0  0  0  0  0  0  0  0  0  0
   -4.5149   -0.7188   -3.2493 C   0  0  0  0  0  0  0  0  0  0  0  0
   -3.3523   -0.9127   -2.5824 N   0  0  0  0  0  0  0  0  0  0  0  0
   -0.9215   -0.7274   -0.8845 C   0  0  0  0  0  0  0  0  0  0  0  0
   -1.0083    0.6321   -1.5109 C   0  0  0  0  0  0  0  0  0  0  0  0
    0.3544    1.2898   -1.2774 C   0  0  0  0  0  0  0  0  0  0  0  0
    1.3911    0.2923   -1.4486 N   0  0  0  0  0  0  0  0  0  0  0  0
    2.6694    0.4195   -0.8138 C   0  0  0  0  0  0  0  0  0  0  0  0
    3.0143    1.4291    0.0232 N   0  0  0  0  0  0  0  0  0  0  0  0
    4.2759    1.2655    0.4454 C   0  0  0  0  0  0  0  0  0  0  0  0
    5.1375    1.9409    1.2732 C   0  0  0  0  0  0  0  0  0  0  0  0
    6.4265    1.5555    1.5559 C   0  0  0  0  0  0  0  0  0  0  0  0
    7.2158    2.2641    2.3785 F   0  0  0  0  0  0  0  0  0  0  0  0
    6.9005    0.3872    0.9565 C   0  0  0  0  0  0  0  0  0  0  0  0
    8.2785   -0.0898    1.2134 C   0  0  0  0  0  0  0  0  0  0  0  0
    8.3516   -0.3054    2.5983 F   0  0  0  0  0  0  0  0  0  0  0  0
    9.2068    0.8970    0.9158 F   0  0  0  0  0  0  0  0  0  0  0  0
    8.5690   -1.2477    0.5439 F   0  0  0  0  0  0  0  0  0  0  0  0
    6.0515   -0.2930    0.1306 C   0  0  0  0  0  0  0  0  0  0  0  0
    4.7564    0.1007   -0.1486 C   0  0  0  0  0  0  0  0  0  0  0  0
    3.7466   -0.3702   -0.8988 N   0  0  0  0  0  0  0  0  0  0  0  0
    1.1000   -0.8548   -2.2820 C   0  0  0  0  0  0  0  0  0  0  0  0
   -0.0006   -1.6556   -1.6428 C   0  0  0  0  0  0  0  0  0  0  0  0
   -2.6595   -1.6464    3.1039 H   0  0  0  0  0  0  0  0  0  0  0  0
   -4.2350   -0.7148    4.7944 H   0  0  0  0  0  0  0  0  0  0  0  0
   -3.4814    1.6876    0.6011 H   0  0  0  0  0  0  0  0  0  0  0  0
   -2.0363   -2.4416   -0.2676 H   0  0  0  0  0  0  0  0  0  0  0  0
   -4.6915   -1.3329    0.4387 H   0  0  0  0  0  0  0  0  0  0  0  0
   -6.7538   -0.9832   -0.7402 H   0  0  0  0  0  0  0  0  0  0  0  0
   -6.6819   -0.5779   -3.1725 H   0  0  0  0  0  0  0  0  0  0  0  0
   -4.5021   -0.5389   -4.3303 H   0  0  0  0  0  0  0  0  0  0  0  0
   -1.7758    1.2123   -0.9808 H   0  0  0  0  0  0  0  0  0  0  0  0
   -1.2165    0.6036   -2.6014 H   0  0  0  0  0  0  0  0  0  0  0  0
    0.4919    2.1874   -1.8802 H   0  0  0  0  0  0  0  0  0  0  0  0
    0.3876    1.5732   -0.1873 H   0  0  0  0  0  0  0  0  0  0  0  0
    4.7463    2.8453    1.7284 H   0  0  0  0  0  0  0  0  0  0  0  0
    6.4179   -1.2028   -0.3396 H   0  0  0  0  0  0  0  0  0  0  0  0
    3.8258   -1.2489   -1.4664 H   0  0  0  0  0  0  0  0  0  0  0  0
    0.7462   -0.5340   -3.2907 H   0  0  0  0  0  0  0  0  0  0  0  0
    2.0156   -1.4586   -2.4623 H   0  0  0  0  0  0  0  0  0  0  0  0
   -0.5898   -2.1345   -2.4435 H   0  0  0  0  0  0  0  0  0  0  0  0
    0.3754   -2.4634   -0.9865 H   0  0  0  0  0  0  0  0  0  0  0  0
  1  2  2  0
  2  3  1  0
  3  4  1  0
  4  5  2  0
  5  6  1  0
  6  7  2  0
  7  8  1  0
  7  9  1  0
  9 10  1  0
  9 11  2  0
  3 12  1  0
 12 13  1  0
 13 14  2  0
 14 15  1  0
 15 16  2  0
 16 17  1  0
 17 18  2  0
 12 19  1  0
 19 20  1  0
 20 21  1  0
 21 22  1  0
 22 23  1  0
 23 24  2  0
 24 25  1  0
 25 26  2  0
 26 27  1  0
 27 28  1  0
 27 29  2  0
 29 30  1  0
 30 31  1  0
 30 32  1  0
 30 33  1  0
 29 34  1  0
 34 35  2  0
 35 36  1  0
 22 37  1  0
 37 38  1  0
 19  2  1  0
 36 23  1  0
 11  4  1  0
 18 13  1  0
 38 19  1  0
 35 25  1  0
  5 39  1  0
  6 40  1  0
 11 41  1  0
 12 42  1  0
 14 43  1  0
 15 44  1  0
 16 45  1  0
 17 46  1  0
 20 47  1  0
 20 48  1  0
 21 49  1  0
 21 50  1  0
 26 51  1  0
 34 52  1  0
 36 53  1  0
 37 54  1  0
 37 55  1  0
 38 56  1  0
 38 57  1  0
M  END
$$$$
