
     RDKit          3D

 56 59  0  0  0  0  0  0  0  0999 V2000
   -2.3596   -3.1714   -0.8871 C   0  0  0  0  0  0  0  0  0  0  0  0
   -2.9265   -1.7814   -1.0858 C   0  0  0  0  0  0  0  0  0  0  0  0
   -4.3910   -1.7810   -0.8039 C   0  0  0  0  0  0  0  0  0  0  0  0
   -2.1840   -0.8842   -0.2463 N   0  0  0  0  0  0  0  0  0  0  0  0
   -0.7758   -0.7692   -0.5487 C   0  0  0  0  0  0  0  0  0  0  0  0
   -0.8914    0.6951   -0.1008 C   0  0  0  0  0  0  0  0  0  0  0  0
   -0.0990    1.6395   -0.9796 C   0  0  0  0  0  0  0  0  0  0  0  0
    1.3478    1.1954   -0.8889 C   0  0  0  0  0  0  0  0  0  0  0  0
    1.6833    0.9406    0.4962 N   0  0  0  0  0  0  0  0  0  0  0  0
    2.9589    0.2944    0.7428 C   0  0  0  0  0  0  0  0  0  0  0  0
    3.2712    0.0560    1.9318 O   0  0  0  0  0  0  0  0  0  0  0  0
    3.8225   -0.0575   -0.2930 N   0  0  0  0  0  0  0  0  0  0  0  0
    5.0771   -0.6910   -0.1866 C   0  0  0  0  0  0  0  0  0  0  0  0
    5.5109   -1.2902    0.9607 C   0  0  0  0  0  0  0  0  0  0  0  0
    6.7730   -1.8979    1.0382 C   0  0  0  0  0  0  0  0  0  0  0  0
    7.1758   -2.4826    2.1868 F   0  0  0  0  0  0  0  0  0  0  0  0
    7.5952   -1.8949   -0.0580 C   0  0  0  0  0  0  0  0  0  0  0  0
    7.1793   -1.2976   -1.2252 C   0  0  0  0  0  0  0  0  0  0  0  0
    7.9753   -1.2789   -2.3334 F   0  0  0  0  0  0  0  0  0  0  0  0
    5.9464   -0.7058   -1.2947 C   0  0  0  0  0  0  0  0  0  0  0  0
    0.8372    1.2946    1.6006 C   0  0  0  0  0  0  0  0  0  0  0  0
   -0.5911    0.8797    1.3476 C   0  0  0  0  0  0  0  0  0  0  0  0
   -2.3104    0.5240   -0.5306 C   0  0  0  0  0  0  0  0  0  0  0  0
   -3.3170    1.2474    0.2428 C   0  0  0  0  0  0  0  0  0  0  0  0
   -3.6143    1.0408    1.5543 C   0  0  0  0  0  0  0  0  0  0  0  0
   -4.5761    1.7777    2.2214 C   0  0  0  0  0  0  0  0  0  0  0  0
   -5.2761    2.7714    1.5416 C   0  0  0  0  0  0  0  0  0  0  0  0
   -6.2263    3.5182    2.1535 F   0  0  0  0  0  0  0  0  0  0  0  0
   -4.9977    3.0047    0.2109 C   0  0  0  0  0  0  0  0  0  0  0  0
   -4.0431    2.2539   -0.4013 C   0  0  0  0  0  0  0  0  0  0  0  0
   -2.0239   -3.2854    0.1857 H   0  0  0  0  0  0  0  0  0  0  0  0
   -3.1343   -3.9551   -1.0377 H   0  0  0  0  0  0  0  0  0  0  0  0
   -1.4586   -3.3594   -1.4992 H   0  0  0  0  0  0  0  0  0  0  0  0
   -2.7556   -1.5235   -2.1523 H   0  0  0  0  0  0  0  0  0  0  0  0
   -4.8097   -0.7507   -0.8407 H   0  0  0  0  0  0  0  0  0  0  0  0
   -4.9231   -2.3452   -1.6015 H   0  0  0  0  0  0  0  0  0  0  0  0
   -4.6555   -2.2018    0.1771 H   0  0  0  0  0  0  0  0  0  0  0  0
   -0.0940   -1.3637    0.0839 H   0  0  0  0  0  0  0  0  0  0  0  0
   -0.5462   -0.7978   -1.6452 H   0  0  0  0  0  0  0  0  0  0  0  0
   -0.1797    2.6566   -0.6009 H   0  0  0  0  0  0  0  0  0  0  0  0
   -0.4631    1.5730   -2.0012 H   0  0  0  0  0  0  0  0  0  0  0  0
    1.4948    0.2949   -1.5240 H   0  0  0  0  0  0  0  0  0  0  0  0
    2.0168    1.9863   -1.2812 H   0  0  0  0  0  0  0  0  0  0  0  0
    3.4916    0.1813   -1.2767 H   0  0  0  0  0  0  0  0  0  0  0  0
    4.9043   -1.3389    1.8675 H   0  0  0  0  0  0  0  0  0  0  0  0
    8.5783   -2.3562   -0.0318 H   0  0  0  0  0  0  0  0  0  0  0  0
    5.5733   -0.2222   -2.1893 H   0  0  0  0  0  0  0  0  0  0  0  0
    1.1853    0.7766    2.5230 H   0  0  0  0  0  0  0  0  0  0  0  0
    0.8816    2.4041    1.8175 H   0  0  0  0  0  0  0  0  0  0  0  0
   -0.7665   -0.0835    1.8638 H   0  0  0  0  0  0  0  0  0  0  0  0
   -1.2490    1.6925    1.7593 H   0  0  0  0  0  0  0  0  0  0  0  0
   -2.3641    0.7516   -1.6375 H   0  0  0  0  0  0  0  0  0  0  0  0
   -3.1107    0.2861    2.1104 H   0  0  0  0  0  0  0  0  0  0  0  0
   -4.8065    1.6098    3.2581 H   0  0  0  0  0  0  0  0  0  0  0  0
   -5.5222    3.7699   -0.3512 H   0  0  0  0  0  0  0  0  0  0  0  0
   -3.8379    2.4509   -1.4463 H   0  0  0  0  0  0  0  0  0  0  0  0
  1  2  1  0
  2  3  1  0
  2  4  1  0
  4  5  1  0
  5  6  1  0
  6  7  1  0
  7  8  1  0
  8  9  1  0
  9 10  1  0
 10 11  2  0
 10 12  1  0
 12 13  1  0
 13 14  2  0
 14 15  1  0
 15 16  1  0
 15 17  2  0
 17 18  1  0
 18 19  1  0
 18 20  2  0
  9 21  1  0
 21 22  1  0
  6 23  1  0
 23 24  1  0
 24 25  2  0
 25 26  1  0
 26 27  2  0
 27 28  1  0
 27 29  1  0
 29 30  2  0
 23  4  1  0
 30 24  1  0
 22  6  1  0
 20 13  1  0
  1 31  1  0
  1 32  1  0
  1 33  1  0
  2 34  1  0
  3 35  1  0
  3 36  1  0
  3 37  1  0
  5 38  1  0
  5 39  1  0
  7 40  1  0
  7 41  1  0
  8 42  1  0
  8 43  1  0
 12 44  1  0
 14 45  1  0
 17 46  1  0
 20 47  1  0
 21 48  1  0
 21 49  1  0
 22 50  1  0
 22 51  1  0
 23 52  1  0
 25 53  1  0
 26 54  1  0
 29 55  1  0
 30 56  1  0
M  END
$$$$
