
     RDKit          3D

 54 59  0  0  0  0  0  0  0  0999 V2000
   -2.3349   -0.2884   -2.4451 O   0  0  0  0  0  0  0  0  0  0  0  0
   -1.9940   -0.0263   -1.2713 C   0  0  0  0  0  0  0  0  0  0  0  0
   -2.7279    0.5621   -0.1772 N   0  0  0  0  0  0  0  0  0  0  0  0
   -3.7583    1.5179   -0.0302 C   0  0  0  0  0  0  0  0  0  0  0  0
   -3.5086    2.8011    0.3954 C   0  0  0  0  0  0  0  0  0  0  0  0
   -4.5616    3.6777    0.5029 C   0  0  0  0  0  0  0  0  0  0  0  0
   -5.8480    3.2970    0.1945 C   0  0  0  0  0  0  0  0  0  0  0  0
   -6.8665    4.1760    0.3070 F   0  0  0  0  0  0  0  0  0  0  0  0
   -6.1241    2.0155   -0.2340 C   0  0  0  0  0  0  0  0  0  0  0  0
   -7.7511    1.4899   -0.6364 Cl  0  0  0  0  0  0  0  0  0  0  0  0
   -5.0418    1.1521   -0.3337 C   0  0  0  0  0  0  0  0  0  0  0  0
   -1.9300   -0.2731    0.6867 C   0  0  0  0  0  0  0  0  0  0  0  0
   -2.4143   -1.6937    0.6178 C   0  0  0  0  0  0  0  0  0  0  0  0
   -2.5864   -2.4810    1.7258 C   0  0  0  0  0  0  0  0  0  0  0  0
   -3.0384   -3.8025    1.6123 C   0  0  0  0  0  0  0  0  0  0  0  0
   -3.3122   -4.3095    0.3572 C   0  0  0  0  0  0  0  0  0  0  0  0
   -3.1211   -3.4736   -0.7194 C   0  0  0  0  0  0  0  0  0  0  0  0
   -2.6832   -2.1985   -0.5890 N   0  0  0  0  0  0  0  0  0  0  0  0
   -0.8285   -0.1156   -0.3529 C   0  0  0  0  0  0  0  0  0  0  0  0
   -0.0217   -1.3583   -0.4802 C   0  0  0  0  0  0  0  0  0  0  0  0
    1.4475   -1.2356   -0.3478 C   0  0  0  0  0  0  0  0  0  0  0  0
    1.9660    0.0583   -0.7228 N   0  0  0  0  0  0  0  0  0  0  0  0
    3.3524    0.2649   -0.5184 C   0  0  0  0  0  0  0  0  0  0  0  0
    3.9789    0.9617    0.4703 N   0  0  0  0  0  0  0  0  0  0  0  0
    5.3084    0.8978    0.3189 C   0  0  0  0  0  0  0  0  0  0  0  0
    6.3855    1.4007    1.0056 C   0  0  0  0  0  0  0  0  0  0  0  0
    7.7053    1.1673    0.6087 C   0  0  0  0  0  0  0  0  0  0  0  0
    8.7651    1.6649    1.2770 F   0  0  0  0  0  0  0  0  0  0  0  0
    7.9399    0.4022   -0.5176 C   0  0  0  0  0  0  0  0  0  0  0  0
    9.6027    0.0967   -1.0190 Cl  0  0  0  0  0  0  0  0  0  0  0  0
    6.8671   -0.1031   -1.2094 C   0  0  0  0  0  0  0  0  0  0  0  0
    5.5543    0.1338   -0.8057 C   0  0  0  0  0  0  0  0  0  0  0  0
    4.3637   -0.2307   -1.2868 N   0  0  0  0  0  0  0  0  0  0  0  0
    1.1010    1.0640   -1.2655 C   0  0  0  0  0  0  0  0  0  0  0  0
   -0.0801    1.1678   -0.2949 C   0  0  0  0  0  0  0  0  0  0  0  0
   -2.4796    3.1171    0.6468 H   0  0  0  0  0  0  0  0  0  0  0  0
   -4.3442    4.7060    0.8412 H   0  0  0  0  0  0  0  0  0  0  0  0
   -5.2786    0.1342   -0.6754 H   0  0  0  0  0  0  0  0  0  0  0  0
   -1.7145    0.1153    1.6771 H   0  0  0  0  0  0  0  0  0  0  0  0
   -2.3773   -2.0954    2.7127 H   0  0  0  0  0  0  0  0  0  0  0  0
   -3.1698   -4.4137    2.4956 H   0  0  0  0  0  0  0  0  0  0  0  0
   -3.6615   -5.3269    0.2527 H   0  0  0  0  0  0  0  0  0  0  0  0
   -3.3372   -3.8732   -1.7218 H   0  0  0  0  0  0  0  0  0  0  0  0
   -0.3350   -1.8254   -1.4639 H   0  0  0  0  0  0  0  0  0  0  0  0
   -0.3646   -2.0894    0.2940 H   0  0  0  0  0  0  0  0  0  0  0  0
    1.8362   -1.4889    0.6570 H   0  0  0  0  0  0  0  0  0  0  0  0
    1.9173   -1.9683   -1.0657 H   0  0  0  0  0  0  0  0  0  0  0  0
    6.2175    1.9942    1.8782 H   0  0  0  0  0  0  0  0  0  0  0  0
    7.0676   -0.7032   -2.0919 H   0  0  0  0  0  0  0  0  0  0  0  0
    4.2379   -0.8198   -2.1476 H   0  0  0  0  0  0  0  0  0  0  0  0
    1.6135    2.0409   -1.3738 H   0  0  0  0  0  0  0  0  0  0  0  0
    0.7474    0.7239   -2.2581 H   0  0  0  0  0  0  0  0  0  0  0  0
    0.3342    1.4023    0.7096 H   0  0  0  0  0  0  0  0  0  0  0  0
   -0.7144    1.9908   -0.6890 H   0  0  0  0  0  0  0  0  0  0  0  0
  1  2  2  0
  2  3  1  0
  3  4  1  0
  4  5  2  0
  5  6  1  0
  6  7  2  0
  7  8  1  0
  7  9  1  0
  9 10  1  0
  9 11  2  0
  3 12  1  0
 12 13  1  0
 13 14  2  0
 14 15  1  0
 15 16  2  0
 16 17  1  0
 17 18  2  0
 12 19  1  0
 19 20  1  0
 20 21  1  0
 21 22  1  0
 22 23  1  0
 23 24  2  0
 24 25  1  0
 25 26  2  0
 26 27  1  0
 27 28  1  0
 27 29  2  0
 29 30  1  0
 29 31  1  0
 31 32  2  0
 32 33  1  0
 22 34  1  0
 34 35  1  0
 19  2  1  0
 33 23  1  0
 11  4  1  0
 18 13  1  0
 35 19  1  0
 32 25  1  0
  5 36  1  0
  6 37  1  0
 11 38  1  0
 12 39  1  0
 14 40  1  0
 15 41  1  0
 16 42  1  0
 17 43  1  0
 20 44  1  0
 20 45  1  0
 21 46  1  0
 21 47  1  0
 26 48  1  0
 31 49  1  0
 33 50  1  0
 34 51  1  0
 34 52  1  0
 35 53  1  0
 35 54  1  0
M  END
$$$$
