
     RDKit          3D

 70 72  0  0  0  0  0  0  0  0999 V2000
   -7.0613    0.0344    2.5071 C   0  0  0  0  0  0  0  0  0  0  0  0
   -5.6289    0.5641    2.4368 C   0  0  0  0  0  0  0  0  0  0  0  0
   -5.0083    0.3507    3.7810 C   0  0  0  0  0  0  0  0  0  0  0  0
   -4.9918   -0.1044    1.3807 O   0  0  0  0  0  0  0  0  0  0  0  0
   -4.5303    0.5355    0.2361 C   0  0  0  0  0  0  0  0  0  0  0  0
   -4.7133    1.7713    0.1871 O   0  0  0  0  0  0  0  0  0  0  0  0
   -3.8593   -0.1387   -0.8873 C   0  0  0  0  0  0  0  0  0  0  0  0
   -3.6112    0.7925   -1.9395 N   0  0  0  0  0  0  0  0  0  0  0  0
   -4.4817    0.9057   -3.0506 C   0  0  0  0  0  0  0  0  0  0  0  0
   -4.2575    0.0861   -4.1365 C   0  0  0  0  0  0  0  0  0  0  0  0
   -5.0728    0.1377   -5.2621 C   0  0  0  0  0  0  0  0  0  0  0  0
   -6.1264    1.0402   -5.2681 C   0  0  0  0  0  0  0  0  0  0  0  0
   -6.3199    1.8422   -4.1669 C   0  0  0  0  0  0  0  0  0  0  0  0
   -7.6574    3.0008   -4.1534 Cl  0  0  0  0  0  0  0  0  0  0  0  0
   -5.5132    1.8049   -3.0298 C   0  0  0  0  0  0  0  0  0  0  0  0
   -2.2100    1.8273   -1.9594 S   0  0  0  0  0  0  0  0  0  0  0  0
   -2.1867    2.7187   -3.1503 O   0  0  0  0  0  0  0  0  0  0  0  0
   -2.1421    2.6438   -0.7004 O   0  0  0  0  0  0  0  0  0  0  0  0
   -0.8163    0.7696   -2.0094 C   0  0  0  0  0  0  0  0  0  0  0  0
   -0.3289    0.3971   -3.2347 C   0  0  0  0  0  0  0  0  0  0  0  0
    0.7575   -0.4286   -3.3089 C   0  0  0  0  0  0  0  0  0  0  0  0
    1.3446   -0.8726   -2.1142 C   0  0  0  0  0  0  0  0  0  0  0  0
    0.8904   -0.5254   -0.8812 C   0  0  0  0  0  0  0  0  0  0  0  0
    1.4235   -0.9364    0.3554 N   0  0  0  0  0  0  0  0  0  0  0  0
    2.4759   -1.8609    0.5354 C   0  0  0  0  0  0  0  0  0  0  0  0
    3.0434   -2.4144   -0.4250 O   0  0  0  0  0  0  0  0  0  0  0  0
    2.9564   -2.2153    1.9111 C   0  0  0  0  0  0  0  0  0  0  0  0
    4.0247   -3.1664    1.8725 N   0  0  0  0  0  0  0  0  0  0  0  0
    3.7536   -4.5767    1.9047 C   0  0  0  0  0  0  0  0  0  0  0  0
    5.3888   -2.7204    1.8016 C   0  0  0  0  0  0  0  0  0  0  0  0
    6.3409   -3.5333    1.7638 O   0  0  0  0  0  0  0  0  0  0  0  0
    5.6967   -1.3678    1.7725 O   0  0  0  0  0  0  0  0  0  0  0  0
    7.0460   -0.9296    1.7011 C   0  0  0  0  0  0  0  0  0  0  0  0
    7.0424    0.5475    1.6857 C   0  0  0  0  0  0  0  0  0  0  0  0
    5.8994    1.3204    1.7861 C   0  0  0  0  0  0  0  0  0  0  0  0
    5.9504    2.6812    1.7665 C   0  0  0  0  0  0  0  0  0  0  0  0
    7.1665    3.3435    1.6434 C   0  0  0  0  0  0  0  0  0  0  0  0
    8.3102    2.5928    1.5425 C   0  0  0  0  0  0  0  0  0  0  0  0
    8.2402    1.2218    1.5641 C   0  0  0  0  0  0  0  0  0  0  0  0
   -0.2147    0.3144   -0.8567 C   0  0  0  0  0  0  0  0  0  0  0  0
   -7.1032   -0.9869    2.9181 H   0  0  0  0  0  0  0  0  0  0  0  0
   -7.5906    0.7087    3.2261 H   0  0  0  0  0  0  0  0  0  0  0  0
   -7.5482    0.1064    1.5152 H   0  0  0  0  0  0  0  0  0  0  0  0
   -5.7201    1.6594    2.2517 H   0  0  0  0  0  0  0  0  0  0  0  0
   -4.1445    1.0227    3.9851 H   0  0  0  0  0  0  0  0  0  0  0  0
   -4.7832   -0.7141    3.9751 H   0  0  0  0  0  0  0  0  0  0  0  0
   -5.7912    0.6265    4.5415 H   0  0  0  0  0  0  0  0  0  0  0  0
   -4.5545   -0.9259   -1.3032 H   0  0  0  0  0  0  0  0  0  0  0  0
   -2.9217   -0.6500   -0.5828 H   0  0  0  0  0  0  0  0  0  0  0  0
   -3.4344   -0.6117   -4.1195 H   0  0  0  0  0  0  0  0  0  0  0  0
   -4.9369   -0.4788   -6.1270 H   0  0  0  0  0  0  0  0  0  0  0  0
   -6.7879    1.1044   -6.1416 H   0  0  0  0  0  0  0  0  0  0  0  0
   -5.7365    2.4745   -2.2102 H   0  0  0  0  0  0  0  0  0  0  0  0
   -0.7906    0.7465   -4.1624 H   0  0  0  0  0  0  0  0  0  0  0  0
    1.1924   -0.7606   -4.2629 H   0  0  0  0  0  0  0  0  0  0  0  0
    2.1900   -1.5108   -2.2155 H   0  0  0  0  0  0  0  0  0  0  0  0
    1.0252   -0.5358    1.2712 H   0  0  0  0  0  0  0  0  0  0  0  0
    3.1859   -1.3312    2.5189 H   0  0  0  0  0  0  0  0  0  0  0  0
    2.0823   -2.7145    2.4098 H   0  0  0  0  0  0  0  0  0  0  0  0
    3.2641   -4.8588    2.8462 H   0  0  0  0  0  0  0  0  0  0  0  0
    4.6948   -5.1662    1.7944 H   0  0  0  0  0  0  0  0  0  0  0  0
    3.1090   -4.8821    1.0560 H   0  0  0  0  0  0  0  0  0  0  0  0
    7.5626   -1.2671    2.6296 H   0  0  0  0  0  0  0  0  0  0  0  0
    7.5296   -1.3643    0.8177 H   0  0  0  0  0  0  0  0  0  0  0  0
    4.9478    0.8084    1.8818 H   0  0  0  0  0  0  0  0  0  0  0  0
    5.0488    3.2813    1.8461 H   0  0  0  0  0  0  0  0  0  0  0  0
    7.1967    4.4096    1.6292 H   0  0  0  0  0  0  0  0  0  0  0  0
    9.2664    3.0866    1.4462 H   0  0  0  0  0  0  0  0  0  0  0  0
    9.1622    0.6356    1.4825 H   0  0  0  0  0  0  0  0  0  0  0  0
   -0.6336    0.6350    0.0833 H   0  0  0  0  0  0  0  0  0  0  0  0
  1  2  1  0
  2  3  1  0
  2  4  1  0
  4  5  1  0
  5  6  2  0
  5  7  1  0
  7  8  1  0
  8  9  1  0
  9 10  2  0
 10 11  1  0
 11 12  2  0
 12 13  1  0
 13 14  1  0
 13 15  2  0
  8 16  1  0
 16 17  2  0
 16 18  2  0
 16 19  1  0
 19 20  2  0
 20 21  1  0
 21 22  2  0
 22 23  1  0
 23 24  1  0
 24 25  1  0
 25 26  2  0
 25 27  1  0
 27 28  1  0
 28 29  1  0
 28 30  1  0
 30 31  2  0
 30 32  1  0
 32 33  1  0
 33 34  1  0
 34 35  2  0
 35 36  1  0
 36 37  2  0
 37 38  1  0
 38 39  2  0
 23 40  2  0
 15  9  1  0
 40 19  1  0
 39 34  1  0
  1 41  1  0
  1 42  1  0
  1 43  1  0
  2 44  1  0
  3 45  1  0
  3 46  1  0
  3 47  1  0
  7 48  1  0
  7 49  1  0
 10 50  1  0
 11 51  1  0
 12 52  1  0
 15 53  1  0
 20 54  1  0
 21 55  1  0
 22 56  1  0
 24 57  1  0
 27 58  1  0
 27 59  1  0
 29 60  1  0
 29 61  1  0
 29 62  1  0
 33 63  1  0
 33 64  1  0
 35 65  1  0
 36 66  1  0
 37 67  1  0
 38 68  1  0
 39 69  1  0
 40 70  1  0
M  END
$$$$
