
     RDKit          3D

 57 62  0  0  0  0  0  0  0  0999 V2000
   -0.7735   -1.5971   -2.1313 O   0  0  0  0  0  0  0  0  0  0  0  0
   -1.4202   -0.7711   -1.4229 C   0  0  0  0  0  0  0  0  0  0  0  0
   -2.7891   -0.6363   -1.0587 N   0  0  0  0  0  0  0  0  0  0  0  0
   -3.9093   -1.5265   -0.9104 C   0  0  0  0  0  0  0  0  0  0  0  0
   -3.6919   -2.8398   -0.5794 C   0  0  0  0  0  0  0  0  0  0  0  0
   -4.7490   -3.7108   -0.4281 C   0  0  0  0  0  0  0  0  0  0  0  0
   -6.0531   -3.2852   -0.6058 C   0  0  0  0  0  0  0  0  0  0  0  0
   -7.1092   -4.1008   -0.4694 F   0  0  0  0  0  0  0  0  0  0  0  0
   -6.2807   -1.9534   -0.9428 C   0  0  0  0  0  0  0  0  0  0  0  0
   -7.9253   -1.4098   -1.1627 Cl  0  0  0  0  0  0  0  0  0  0  0  0
   -5.1993   -1.1130   -1.0847 C   0  0  0  0  0  0  0  0  0  0  0  0
   -2.5509    0.7803   -0.8980 C   0  0  0  0  0  0  0  0  0  0  0  0
   -3.3437    1.4586    0.1220 C   0  0  0  0  0  0  0  0  0  0  0  0
   -3.6674    2.7996   -0.1074 C   0  0  0  0  0  0  0  0  0  0  0  0
   -4.4238    3.5189    0.7845 C   0  0  0  0  0  0  0  0  0  0  0  0
   -4.8827    2.9157    1.9367 C   0  0  0  0  0  0  0  0  0  0  0  0
   -4.5544    1.5914    2.1459 C   0  0  0  0  0  0  0  0  0  0  0  0
   -3.8078    0.9101    1.2522 N   0  0  0  0  0  0  0  0  0  0  0  0
   -1.1358    0.4387   -0.6277 C   0  0  0  0  0  0  0  0  0  0  0  0
   -0.7441    0.1234    0.7679 C   0  0  0  0  0  0  0  0  0  0  0  0
    0.6170   -0.5605    0.7400 C   0  0  0  0  0  0  0  0  0  0  0  0
    1.5195   -0.0326   -0.2267 N   0  0  0  0  0  0  0  0  0  0  0  0
    2.9429   -0.0531   -0.0023 C   0  0  0  0  0  0  0  0  0  0  0  0
    3.6092    1.0737    0.3229 N   0  0  0  0  0  0  0  0  0  0  0  0
    4.9053    0.7709    0.4538 C   0  0  0  0  0  0  0  0  0  0  0  0
    5.9541    1.5949    0.7676 C   0  0  0  0  0  0  0  0  0  0  0  0
    7.2000    1.0447    0.8352 C   0  0  0  0  0  0  0  0  0  0  0  0
    8.2482    1.8602    1.1393 F   0  0  0  0  0  0  0  0  0  0  0  0
    7.3970   -0.3140    0.5933 C   0  0  0  0  0  0  0  0  0  0  0  0
    8.7734   -0.8205    0.6877 C   0  0  0  0  0  0  0  0  0  0  0  0
    8.8808   -2.1560    0.4388 F   0  0  0  0  0  0  0  0  0  0  0  0
    9.6404   -0.1398   -0.1457 F   0  0  0  0  0  0  0  0  0  0  0  0
    9.2413   -0.5590    1.9864 F   0  0  0  0  0  0  0  0  0  0  0  0
    6.3175   -1.1281    0.2773 C   0  0  0  0  0  0  0  0  0  0  0  0
    5.0530   -0.5877    0.2043 C   0  0  0  0  0  0  0  0  0  0  0  0
    3.8202   -1.0487   -0.0700 N   0  0  0  0  0  0  0  0  0  0  0  0
    1.1196    0.5748   -1.4914 C   0  0  0  0  0  0  0  0  0  0  0  0
   -0.1212    1.3899   -1.2341 C   0  0  0  0  0  0  0  0  0  0  0  0
   -2.7016   -3.2332   -0.4282 H   0  0  0  0  0  0  0  0  0  0  0  0
   -4.5887   -4.7432   -0.1694 H   0  0  0  0  0  0  0  0  0  0  0  0
   -5.3948   -0.0853   -1.3471 H   0  0  0  0  0  0  0  0  0  0  0  0
   -2.6240    1.2364   -1.9260 H   0  0  0  0  0  0  0  0  0  0  0  0
   -3.3331    3.3235   -0.9926 H   0  0  0  0  0  0  0  0  0  0  0  0
   -4.6889    4.5708    0.6415 H   0  0  0  0  0  0  0  0  0  0  0  0
   -5.4829    3.4332    2.6790 H   0  0  0  0  0  0  0  0  0  0  0  0
   -4.9017    1.0740    3.0462 H   0  0  0  0  0  0  0  0  0  0  0  0
   -1.5032   -0.5635    1.1913 H   0  0  0  0  0  0  0  0  0  0  0  0
   -0.6524    1.0173    1.4195 H   0  0  0  0  0  0  0  0  0  0  0  0
    1.0556   -0.4564    1.7736 H   0  0  0  0  0  0  0  0  0  0  0  0
    0.4162   -1.6598    0.5825 H   0  0  0  0  0  0  0  0  0  0  0  0
    5.8107    2.6479    0.9573 H   0  0  0  0  0  0  0  0  0  0  0  0
    6.4528   -2.1821    0.0885 H   0  0  0  0  0  0  0  0  0  0  0  0
    3.5860   -2.0388   -0.3026 H   0  0  0  0  0  0  0  0  0  0  0  0
    1.8969    1.3051   -1.8300 H   0  0  0  0  0  0  0  0  0  0  0  0
    0.9961   -0.1424   -2.3032 H   0  0  0  0  0  0  0  0  0  0  0  0
   -0.5512    1.8538   -2.1164 H   0  0  0  0  0  0  0  0  0  0  0  0
    0.1013    2.1405   -0.4335 H   0  0  0  0  0  0  0  0  0  0  0  0
  1  2  2  0
  2  3  1  0
  3  4  1  0
  4  5  2  0
  5  6  1  0
  6  7  2  0
  7  8  1  0
  7  9  1  0
  9 10  1  0
  9 11  2  0
  3 12  1  0
 12 13  1  0
 13 14  2  0
 14 15  1  0
 15 16  2  0
 16 17  1  0
 17 18  2  0
 12 19  1  0
 19 20  1  0
 20 21  1  0
 21 22  1  0
 22 23  1  0
 23 24  2  0
 24 25  1  0
 25 26  2  0
 26 27  1  0
 27 28  1  0
 27 29  2  0
 29 30  1  0
 30 31  1  0
 30 32  1  0
 30 33  1  0
 29 34  1  0
 34 35  2  0
 35 36  1  0
 22 37  1  0
 37 38  1  0
 19  2  1  0
 36 23  1  0
 11  4  1  0
 18 13  1  0
 38 19  1  0
 35 25  1  0
  5 39  1  0
  6 40  1  0
 11 41  1  0
 12 42  1  0
 14 43  1  0
 15 44  1  0
 16 45  1  0
 17 46  1  0
 20 47  1  0
 20 48  1  0
 21 49  1  0
 21 50  1  0
 26 51  1  0
 34 52  1  0
 36 53  1  0
 37 54  1  0
 37 55  1  0
 38 56  1  0
 38 57  1  0
M  END
$$$$
