
     RDKit          3D

 57 62  0  0  0  0  0  0  0  0999 V2000
   -2.0329   -0.4023   -2.2638 O   0  0  0  0  0  0  0  0  0  0  0  0
   -2.0547   -0.1627   -1.0426 C   0  0  0  0  0  0  0  0  0  0  0  0
   -2.9985    0.5190   -0.1851 N   0  0  0  0  0  0  0  0  0  0  0  0
   -3.9087    1.5894   -0.2265 C   0  0  0  0  0  0  0  0  0  0  0  0
   -3.7982    2.6390    0.6678 C   0  0  0  0  0  0  0  0  0  0  0  0
   -4.6995    3.6805    0.6252 C   0  0  0  0  0  0  0  0  0  0  0  0
   -5.7026    3.6533   -0.3173 C   0  0  0  0  0  0  0  0  0  0  0  0
   -5.8219    2.6010   -1.2221 C   0  0  0  0  0  0  0  0  0  0  0  0
   -7.0939    2.5598   -2.4162 Cl  0  0  0  0  0  0  0  0  0  0  0  0
   -4.9174    1.5550   -1.1802 C   0  0  0  0  0  0  0  0  0  0  0  0
   -2.5816   -0.4655    0.8298 C   0  0  0  0  0  0  0  0  0  0  0  0
   -3.3409   -1.7033    0.5807 C   0  0  0  0  0  0  0  0  0  0  0  0
   -4.7222   -1.6085    0.4634 C   0  0  0  0  0  0  0  0  0  0  0  0
   -5.5141   -2.7276    0.2125 C   0  0  0  0  0  0  0  0  0  0  0  0
   -4.9198   -3.9402    0.0796 C   0  0  0  0  0  0  0  0  0  0  0  0
   -3.5500   -4.0262    0.1980 C   0  0  0  0  0  0  0  0  0  0  0  0
   -2.8227   -2.9154    0.4416 N   0  0  0  0  0  0  0  0  0  0  0  0
   -1.2418   -0.3813    0.1959 C   0  0  0  0  0  0  0  0  0  0  0  0
   -0.3531   -1.5698    0.2221 C   0  0  0  0  0  0  0  0  0  0  0  0
    1.0123   -1.1596    0.7330 C   0  0  0  0  0  0  0  0  0  0  0  0
    1.5970   -0.0625   -0.0044 N   0  0  0  0  0  0  0  0  0  0  0  0
    2.9877   -0.0527   -0.1785 C   0  0  0  0  0  0  0  0  0  0  0  0
    3.7301   -0.5216   -1.1940 N   0  0  0  0  0  0  0  0  0  0  0  0
    5.0501   -0.3194   -0.9422 C   0  0  0  0  0  0  0  0  0  0  0  0
    6.2213   -0.6056   -1.6314 C   0  0  0  0  0  0  0  0  0  0  0  0
    7.4504   -0.2735   -1.0979 C   0  0  0  0  0  0  0  0  0  0  0  0
    8.6209   -0.5383   -1.7490 F   0  0  0  0  0  0  0  0  0  0  0  0
    7.5329    0.3436    0.1196 C   0  0  0  0  0  0  0  0  0  0  0  0
    8.8473    0.7080    0.7243 C   0  0  0  0  0  0  0  0  0  0  0  0
    9.5610   -0.4841    0.8713 F   0  0  0  0  0  0  0  0  0  0  0  0
    8.6366    1.2021    2.0176 F   0  0  0  0  0  0  0  0  0  0  0  0
    9.5330    1.6365   -0.0208 F   0  0  0  0  0  0  0  0  0  0  0  0
    6.3631    0.6267    0.8017 C   0  0  0  0  0  0  0  0  0  0  0  0
    5.1242    0.3056    0.2908 C   0  0  0  0  0  0  0  0  0  0  0  0
    3.8614    0.4580    0.7357 N   0  0  0  0  0  0  0  0  0  0  0  0
    0.6821    0.9453   -0.4988 C   0  0  0  0  0  0  0  0  0  0  0  0
   -0.5022    0.9071    0.4873 C   0  0  0  0  0  0  0  0  0  0  0  0
   -3.0052    2.6702    1.4152 H   0  0  0  0  0  0  0  0  0  0  0  0
   -4.5794    4.4797    1.3394 H   0  0  0  0  0  0  0  0  0  0  0  0
   -6.4277    4.4636   -0.3695 H   0  0  0  0  0  0  0  0  0  0  0  0
   -4.9607    0.7157   -1.8511 H   0  0  0  0  0  0  0  0  0  0  0  0
   -2.6658   -0.0715    1.8647 H   0  0  0  0  0  0  0  0  0  0  0  0
   -5.2561   -0.6871    0.5637 H   0  0  0  0  0  0  0  0  0  0  0  0
   -6.6013   -2.6187    0.1241 H   0  0  0  0  0  0  0  0  0  0  0  0
   -5.5273   -4.8060   -0.1173 H   0  0  0  0  0  0  0  0  0  0  0  0
   -3.1055   -5.0085    0.0848 H   0  0  0  0  0  0  0  0  0  0  0  0
   -0.6966   -2.3374    0.9842 H   0  0  0  0  0  0  0  0  0  0  0  0
   -0.2288   -2.0702   -0.7442 H   0  0  0  0  0  0  0  0  0  0  0  0
    0.8845   -0.9122    1.8143 H   0  0  0  0  0  0  0  0  0  0  0  0
    1.6819   -2.0442    0.7116 H   0  0  0  0  0  0  0  0  0  0  0  0
    6.1970   -1.0858   -2.5837 H   0  0  0  0  0  0  0  0  0  0  0  0
    6.4279    1.1094    1.7576 H   0  0  0  0  0  0  0  0  0  0  0  0
    3.5645    0.8967    1.6357 H   0  0  0  0  0  0  0  0  0  0  0  0
    0.2549    0.6110   -1.4681 H   0  0  0  0  0  0  0  0  0  0  0  0
    1.1211    1.9450   -0.5688 H   0  0  0  0  0  0  0  0  0  0  0  0
   -0.1697    0.9951    1.5207 H   0  0  0  0  0  0  0  0  0  0  0  0
   -1.1425    1.7457    0.1739 H   0  0  0  0  0  0  0  0  0  0  0  0
  1  2  2  0
  2  3  1  0
  3  4  1  0
  4  5  2  0
  5  6  1  0
  6  7  2  0
  7  8  1  0
  8  9  1  0
  8 10  2  0
  3 11  1  0
 11 12  1  0
 12 13  2  0
 13 14  1  0
 14 15  2  0
 15 16  1  0
 16 17  2  0
 11 18  1  0
 18 19  1  0
 19 20  1  0
 20 21  1  0
 21 22  1  0
 22 23  2  0
 23 24  1  0
 24 25  2  0
 25 26  1  0
 26 27  1  0
 26 28  2  0
 28 29  1  0
 29 30  1  0
 29 31  1  0
 29 32  1  0
 28 33  1  0
 33 34  2  0
 34 35  1  0
 21 36  1  0
 36 37  1  0
 18  2  1  0
 35 22  1  0
 10  4  1  0
 17 12  1  0
 37 18  1  0
 34 24  1  0
  5 38  1  0
  6 39  1  0
  7 40  1  0
 10 41  1  0
 11 42  1  0
 13 43  1  0
 14 44  1  0
 15 45  1  0
 16 46  1  0
 19 47  1  0
 19 48  1  0
 20 49  1  0
 20 50  1  0
 25 51  1  0
 33 52  1  0
 35 53  1  0
 36 54  1  0
 36 55  1  0
 37 56  1  0
 37 57  1  0
M  END
$$$$
