
     RDKit          3D

 67 69  0  0  0  0  0  0  0  0999 V2000
   -5.1412    1.2173   -3.2435 C   0  0  0  0  0  0  0  0  0  0  0  0
   -4.4184    1.2708   -1.9122 C   0  0  0  0  0  0  0  0  0  0  0  0
   -5.0253    0.2286   -0.9965 C   0  0  2  0  0  0  0  0  0  0  0  0
   -6.4890    0.5585   -0.8258 C   0  0  0  0  0  0  0  0  0  0  0  0
   -4.3775    0.2159    0.3603 C   0  0  2  0  0  0  0  0  0  0  0  0
   -2.9561   -0.0774    0.2704 N   0  0  0  0  0  0  0  0  0  0  0  0
   -1.9988    0.7614    0.8428 C   0  0  0  0  0  0  0  0  0  0  0  0
   -2.3368    1.8016    1.4530 O   0  0  0  0  0  0  0  0  0  0  0  0
   -0.6185    0.4683    0.7561 N   0  0  0  0  0  0  0  0  0  0  0  0
    0.3248    1.3715    1.3632 C   0  0  0  0  0  0  0  0  0  0  0  0
    1.4890    0.5898    1.8112 C   0  0  0  0  0  0  0  0  0  0  0  0
    2.1432   -0.2309    0.6608 C   0  0  0  0  0  0  0  0  0  0  0  0
    1.1340   -1.2497    0.4537 C   0  0  0  0  0  0  0  0  0  0  0  0
   -0.2068   -0.6899    0.0920 C   0  0  0  0  0  0  0  0  0  0  0  0
    2.0135    0.8389   -0.5033 C   0  0  0  0  0  0  0  0  0  0  0  0
    3.0949    0.1012   -0.3934 N   0  0  0  0  0  0  0  0  0  0  0  0
    3.5275   -1.0302    0.2390 C   0  0  0  0  0  0  0  0  0  0  0  0
    3.7869   -1.0561    1.7379 C   0  0  0  0  0  0  0  0  0  0  0  0
    4.1035   -1.6466   -1.0294 C   0  0  0  0  0  0  0  0  0  0  0  0
    3.5434    0.1544    0.5791 C   0  0  0  0  0  0  0  0  0  0  0  0
    4.9153    0.3769   -0.0671 C   0  0  0  0  0  0  0  0  0  0  0  0
    5.0249    1.4415   -1.0013 C   0  0  0  0  0  0  0  0  0  0  0  0
    6.2156    1.7177   -1.5657 C   0  0  0  0  0  0  0  0  0  0  0  0
    7.2591    0.9758   -1.2258 C   0  0  0  0  0  0  0  0  0  0  0  0
    8.7758    1.3717   -1.9933 Cl  0  0  0  0  0  0  0  0  0  0  0  0
    7.2524   -0.0525   -0.3508 C   0  0  0  0  0  0  0  0  0  0  0  0
    6.1284   -0.3512    0.2148 C   0  0  0  0  0  0  0  0  0  0  0  0
   -5.0265   -0.8778    1.1501 C   0  0  0  0  0  0  0  0  0  0  0  0
   -4.3432   -1.8337    1.5994 O   0  0  0  0  0  0  0  0  0  0  0  0
   -6.3952   -0.8691    1.4082 O   0  0  0  0  0  0  0  0  0  0  0  0
   -6.9523   -1.9299    2.1592 C   0  0  0  0  0  0  0  0  0  0  0  0
   -4.4130    1.3630   -4.0747 H   0  0  0  0  0  0  0  0  0  0  0  0
   -5.6342    0.2324   -3.3427 H   0  0  0  0  0  0  0  0  0  0  0  0
   -5.8951    2.0430   -3.2948 H   0  0  0  0  0  0  0  0  0  0  0  0
   -3.3472    1.0133   -2.0497 H   0  0  0  0  0  0  0  0  0  0  0  0
   -4.5226    2.2479   -1.4252 H   0  0  0  0  0  0  0  0  0  0  0  0
   -4.9189   -0.7812   -1.4371 H   0  0  0  0  0  0  0  0  0  0  0  0
   -6.6272    1.2046    0.0521 H   0  0  0  0  0  0  0  0  0  0  0  0
   -7.1102   -0.3596   -0.7485 H   0  0  0  0  0  0  0  0  0  0  0  0
   -6.8271    1.0818   -1.7564 H   0  0  0  0  0  0  0  0  0  0  0  0
   -4.5583    1.1607    0.9149 H   0  0  0  0  0  0  0  0  0  0  0  0
   -2.6917   -0.9282   -0.2350 H   0  0  0  0  0  0  0  0  0  0  0  0
   -0.1171    1.8057    2.3159 H   0  0  0  0  0  0  0  0  0  0  0  0
    0.4928    2.2126    0.7220 H   0  0  0  0  0  0  0  0  0  0  0  0
    1.2059   -0.1588    2.5687 H   0  0  0  0  0  0  0  0  0  0  0  0
    2.2331    1.3003    2.2203 H   0  0  0  0  0  0  0  0  0  0  0  0
    0.9804   -1.8022    1.4551 H   0  0  0  0  0  0  0  0  0  0  0  0
    1.1651   -2.0062   -0.3986 H   0  0  0  0  0  0  0  0  0  0  0  0
   -0.2951   -0.6038   -0.9984 H   0  0  0  0  0  0  0  0  0  0  0  0
   -0.8884   -1.5877    0.3574 H   0  0  0  0  0  0  0  0  0  0  0  0
    1.0619    0.6406   -0.9141 H   0  0  0  0  0  0  0  0  0  0  0  0
    2.2171    1.8588   -0.1899 H   0  0  0  0  0  0  0  0  0  0  0  0
    2.9721   -2.0269    0.4202 H   0  0  0  0  0  0  0  0  0  0  0  0
    3.0912   -1.5388    2.3534 H   0  0  0  0  0  0  0  0  0  0  0  0
    4.2166   -0.2284    2.2834 H   0  0  0  0  0  0  0  0  0  0  0  0
    4.6423   -1.7067    2.1733 H   0  0  0  0  0  0  0  0  0  0  0  0
    4.4899   -1.0964   -1.8120 H   0  0  0  0  0  0  0  0  0  0  0  0
    4.8190   -2.5020   -1.0049 H   0  0  0  0  0  0  0  0  0  0  0  0
    3.2753   -2.2695   -1.5100 H   0  0  0  0  0  0  0  0  0  0  0  0
    3.2340    1.3360    0.8773 H   0  0  0  0  0  0  0  0  0  0  0  0
    4.1019    1.9564   -1.1922 H   0  0  0  0  0  0  0  0  0  0  0  0
    6.2110    2.5301   -2.2525 H   0  0  0  0  0  0  0  0  0  0  0  0
    8.1054   -0.6629   -0.0718 H   0  0  0  0  0  0  0  0  0  0  0  0
    6.1862   -1.1819    0.8926 H   0  0  0  0  0  0  0  0  0  0  0  0
   -6.3251   -2.0687    3.0761 H   0  0  0  0  0  0  0  0  0  0  0  0
   -6.9845   -2.8485    1.5524 H   0  0  0  0  0  0  0  0  0  0  0  0
   -7.9924   -1.6181    2.4300 H   0  0  0  0  0  0  0  0  0  0  0  0
  1  2  1  0
  2  3  1  0
  3  4  1  0
  3  5  1  0
  5  6  1  0
  6  7  1  0
  7  8  2  0
  7  9  1  0
  9 10  1  0
 10 11  1  0
 11 12  1  0
 12 13  1  0
 13 14  1  0
 12 15  1  0
 15 16  1  0
 16 17  1  0
 17 18  1  0
 17 19  1  0
 16 20  1  0
 20 21  1  0
 21 22  2  0
 22 23  1  0
 23 24  2  0
 24 25  1  0
 24 26  1  0
 26 27  2  0
  5 28  1  0
 28 29  2  0
 28 30  1  0
 30 31  1  0
 14  9  1  0
 27 21  1  0
 20 12  1  0
  1 32  1  0
  1 33  1  0
  1 34  1  0
  2 35  1  0
  2 36  1  0
  3 37  1  6
  4 38  1  0
  4 39  1  0
  4 40  1  0
  5 41  1  1
  6 42  1  0
 10 43  1  0
 10 44  1  0
 11 45  1  0
 11 46  1  0
 13 47  1  0
 13 48  1  0
 14 49  1  0
 14 50  1  0
 15 51  1  0
 15 52  1  0
 17 53  1  0
 18 54  1  0
 18 55  1  0
 18 56  1  0
 19 57  1  0
 19 58  1  0
 19 59  1  0
 20 60  1  0
 22 61  1  0
 23 62  1  0
 26 63  1  0
 27 64  1  0
 31 65  1  0
 31 66  1  0
 31 67  1  0
M  END
$$$$
