
     RDKit          3D

 59 62  0  0  0  0  0  0  0  0999 V2000
   -6.1219    1.9646   -0.3715 C   0  0  0  0  0  0  0  0  0  0  0  0
   -4.6423    1.9466   -0.7525 C   0  0  0  0  0  0  0  0  0  0  0  0
   -4.0641    3.2433   -0.2577 C   0  0  0  0  0  0  0  0  0  0  0  0
   -4.0051    0.7917   -0.0691 C   0  0  0  0  0  0  0  0  0  0  0  0
   -2.6296    0.5928   -0.2933 N   0  0  0  0  0  0  0  0  0  0  0  0
   -1.6935    1.5851    0.2702 C   0  0  0  0  0  0  0  0  0  0  0  0
   -0.7162    0.3685    0.2464 C   0  0  0  0  0  0  0  0  0  0  0  0
    0.3494    0.4689    1.3026 C   0  0  0  0  0  0  0  0  0  0  0  0
    1.3142   -0.6840    1.0840 C   0  0  0  0  0  0  0  0  0  0  0  0
    1.8415   -0.5638   -0.2435 N   0  0  0  0  0  0  0  0  0  0  0  0
    3.1966   -0.2481   -0.5581 C   0  0  0  0  0  0  0  0  0  0  0  0
    3.5150   -0.1817   -1.7908 O   0  0  0  0  0  0  0  0  0  0  0  0
    4.1397   -0.0182    0.4549 N   0  0  0  0  0  0  0  0  0  0  0  0
    5.4888    0.3056    0.2039 C   0  0  0  0  0  0  0  0  0  0  0  0
    6.4097    0.1991    1.2623 C   0  0  0  0  0  0  0  0  0  0  0  0
    7.7399    0.5096    1.1228 C   0  0  0  0  0  0  0  0  0  0  0  0
    8.5833    0.3917    2.1645 F   0  0  0  0  0  0  0  0  0  0  0  0
    8.2324    0.9460   -0.0835 C   0  0  0  0  0  0  0  0  0  0  0  0
    7.3709    1.0616   -1.1281 C   0  0  0  0  0  0  0  0  0  0  0  0
    7.8548    1.4913   -2.3167 F   0  0  0  0  0  0  0  0  0  0  0  0
    6.0251    0.7445   -0.9759 C   0  0  0  0  0  0  0  0  0  0  0  0
    0.8722   -0.7811   -1.3186 C   0  0  0  0  0  0  0  0  0  0  0  0
   -0.2047    0.2518   -1.1327 C   0  0  0  0  0  0  0  0  0  0  0  0
   -1.9822   -0.3154    0.6498 C   0  0  0  0  0  0  0  0  0  0  0  0
   -2.1588   -1.7370    0.4770 C   0  0  0  0  0  0  0  0  0  0  0  0
   -2.2090   -2.4105   -0.7151 C   0  0  0  0  0  0  0  0  0  0  0  0
   -2.3743   -3.7996   -0.7708 C   0  0  0  0  0  0  0  0  0  0  0  0
   -2.4903   -4.5153    0.3962 C   0  0  0  0  0  0  0  0  0  0  0  0
   -2.6967   -6.2556    0.3948 Cl  0  0  0  0  0  0  0  0  0  0  0  0
   -2.4449   -3.8752    1.6133 C   0  0  0  0  0  0  0  0  0  0  0  0
   -2.2830   -2.5209    1.6306 C   0  0  0  0  0  0  0  0  0  0  0  0
   -6.1889    1.5143    0.6383 H   0  0  0  0  0  0  0  0  0  0  0  0
   -6.7133    1.3317   -1.0635 H   0  0  0  0  0  0  0  0  0  0  0  0
   -6.5123    3.0128   -0.3575 H   0  0  0  0  0  0  0  0  0  0  0  0
   -4.5926    1.8668   -1.8611 H   0  0  0  0  0  0  0  0  0  0  0  0
   -3.3202    3.6629   -0.9895 H   0  0  0  0  0  0  0  0  0  0  0  0
   -4.8552    4.0537   -0.2196 H   0  0  0  0  0  0  0  0  0  0  0  0
   -3.6815    3.1925    0.7722 H   0  0  0  0  0  0  0  0  0  0  0  0
   -4.5260   -0.1410   -0.4432 H   0  0  0  0  0  0  0  0  0  0  0  0
   -4.2369    0.8049    1.0200 H   0  0  0  0  0  0  0  0  0  0  0  0
   -1.3828    2.3827   -0.3936 H   0  0  0  0  0  0  0  0  0  0  0  0
   -1.8405    1.8100    1.3383 H   0  0  0  0  0  0  0  0  0  0  0  0
   -0.1275    0.2875    2.2863 H   0  0  0  0  0  0  0  0  0  0  0  0
    0.9229    1.3988    1.2700 H   0  0  0  0  0  0  0  0  0  0  0  0
    2.0446   -0.7540    1.8809 H   0  0  0  0  0  0  0  0  0  0  0  0
    0.7378   -1.6567    1.1223 H   0  0  0  0  0  0  0  0  0  0  0  0
    3.8352   -0.0833    1.4781 H   0  0  0  0  0  0  0  0  0  0  0  0
    6.0354   -0.1452    2.2153 H   0  0  0  0  0  0  0  0  0  0  0  0
    9.2827    1.1979   -0.2170 H   0  0  0  0  0  0  0  0  0  0  0  0
    5.3915    0.8683   -1.8357 H   0  0  0  0  0  0  0  0  0  0  0  0
    0.5295   -1.8106   -1.3449 H   0  0  0  0  0  0  0  0  0  0  0  0
    1.3772   -0.5388   -2.2710 H   0  0  0  0  0  0  0  0  0  0  0  0
   -1.0325    0.1396   -1.8420 H   0  0  0  0  0  0  0  0  0  0  0  0
    0.2469    1.2607   -1.3976 H   0  0  0  0  0  0  0  0  0  0  0  0
   -2.2834    0.0565    1.6799 H   0  0  0  0  0  0  0  0  0  0  0  0
   -2.1288   -1.8909   -1.6659 H   0  0  0  0  0  0  0  0  0  0  0  0
   -2.4097   -4.3087   -1.7386 H   0  0  0  0  0  0  0  0  0  0  0  0
   -2.5364   -4.4254    2.5577 H   0  0  0  0  0  0  0  0  0  0  0  0
   -2.2521   -2.0434    2.6199 H   0  0  0  0  0  0  0  0  0  0  0  0
  1  2  1  0
  2  3  1  0
  2  4  1  0
  4  5  1  0
  5  6  1  0
  6  7  1  0
  7  8  1  0
  8  9  1  0
  9 10  1  0
 10 11  1  0
 11 12  2  0
 11 13  1  0
 13 14  1  0
 14 15  2  0
 15 16  1  0
 16 17  1  0
 16 18  2  0
 18 19  1  0
 19 20  1  0
 19 21  2  0
 10 22  1  0
 22 23  1  0
  7 24  1  0
 24 25  1  0
 25 26  2  0
 26 27  1  0
 27 28  2  0
 28 29  1  0
 28 30  1  0
 30 31  2  0
 24  5  1  0
 31 25  1  0
 23  7  1  0
 21 14  1  0
  1 32  1  0
  1 33  1  0
  1 34  1  0
  2 35  1  0
  3 36  1  0
  3 37  1  0
  3 38  1  0
  4 39  1  0
  4 40  1  0
  6 41  1  0
  6 42  1  0
  8 43  1  0
  8 44  1  0
  9 45  1  0
  9 46  1  0
 13 47  1  0
 15 48  1  0
 18 49  1  0
 21 50  1  0
 22 51  1  0
 22 52  1  0
 23 53  1  0
 23 54  1  0
 24 55  1  0
 26 56  1  0
 27 57  1  0
 30 58  1  0
 31 59  1  0
M  END
$$$$
